*SPEF "IEEE 1481-1998"
*DESIGN "mux4to1"
*DATE "Sun Nov 16 23:43:57 2025"
*VENDOR "Cadence Design Systems, Inc."
*PROGRAM "Innovus"
*VERSION "23.14-s088_1"
*DESIGN_FLOW "PIN_CAP NONE" "NAME_SCOPE LOCAL"
*DIVIDER /
*DELIMITER :
*BUS_DELIMITER []
*T_UNIT 1 NS
*C_UNIT 1 PF
*R_UNIT 1 OHM
*L_UNIT 1 HENRY

// MMMC spef file for corner 'worst_case'

*NAME_MAP

*1 a[3]
*2 a[2]
*3 a[1]
*4 a[0]
*5 b[3]
*6 b[2]
*7 b[1]
*8 b[0]
*9 c[3]
*10 c[2]
*11 c[1]
*12 c[0]
*13 d[3]
*14 d[2]
*15 d[1]
*16 d[0]
*17 sel[1]
*18 sel[0]
*19 clk
*20 resetn
*21 out[3]
*22 out[2]
*23 out[1]
*24 out[0]
*25 n_0
*26 n_1
*27 n_2
*28 n_3
*29 n_4
*30 n_5
*31 n_6
*32 n_7
*33 n_8
*34 n_9
*35 n_10
*36 n_11
*37 n_12
*38 n_13
*39 n_14
*40 n_15
*41 n_16
*42 n_17
*43 out_reg\[3\]
*44 out_reg\[2\]
*45 out_reg\[0\]
*46 out_reg\[1\]
*47 g413__2398
*48 g415__5107
*49 g414__6260
*50 g416__4319
*51 g420__8428
*52 g417__5526
*53 g424__6783
*54 g421__3680
*55 g423__1617
*56 g422__2802
*57 g418__1705
*58 g419__5122
*59 g425__8246
*60 g426__7098
*61 g428__6131
*62 g427__1881
*63 g429__5115
*64 g430__7482


*PORTS

*1 I *C 0.096 14.976
*2 I *C 3.104 14.976
*3 I *C 6.048 14.976
*4 I *C 8.992 14.976
*5 I *C 11.936 14.976
*6 I *C 14.934 14.976
*7 I *C 0 0.09
*8 I *C 0 3.06
*9 I *C 0 6.03
*10 I *C 0 8.91
*11 I *C 0 11.88
*12 I *C 0 14.886
*13 I *C 0.096 0
*14 I *C 3.104 0
*15 I *C 6.048 0
*16 I *C 8.992 0
*17 I *C 11.936 0
*18 I *C 14.934 0
*19 I *C 15.03 0.09
*20 I *C 15.03 3.06
*21 O *C 15.03 6.03
*22 O *C 15.03 8.91
*23 O *C 15.03 11.88
*24 O *C 15.03 14.886


*D_NET *1 0.000716086

*CONN
*P *1 I *C 0.09600000083 14.97599983 *L 0
*I *53:A2 I *C 5.804999828 12.09599972 *L 0.000679 *D AOI22D1BWP16P90LVT

*CAP
1 *1:0 7.78873e-06
2 *1:1 0.000117625
3 *1:2 4.2202e-06
4 *1 0.000111434
5 *1:4 0.000234675
6 *1:5 0.000236198
7 *53:A2 4.14494e-06

*RES
1 *1:5 *53:A2 3.6
2 *1:4 *1:5 53.9849
3 *1:2 *1:4 0.610194
4 *1:1 *1 33.0147
5 *1:0 *1:2 0.371837
6 *1:0 *1:1 3.6
*END

*D_NET *2 0.000576622

*CONN
*P *2 I *C 3.104000092 14.97599983 *L 0
*I *55:A2 I *C 5.804999828 11.32800007 *L 0.000679 *D AOI22D1BWP16P90LVT

*CAP
1 *2:0 0.000139911
2 *2 0.000137321
3 *2:2 5.54949e-06
4 *2:3 9.15051e-06
5 *2:4 7.90107e-06
6 *2:5 4.83766e-06
7 *2:6 0.000126268
8 *2:7 0.000126268
9 *2:8 7.12602e-06
10 *2:9 8.14359e-06
11 *55:A2 4.14494e-06

*RES
1 *2:9 *55:A2 3.6
2 *2:8 *2:9 0.875059
3 *2:7 *2:8 0.684611
4 *2:6 *2:7 26.9566
5 *2:5 *2:6 0.684611
6 *2:4 *2:5 0.374397
7 *2:3 *2:4 3.6
8 *2:2 *2:3 0.817101
9 *2:0 *2:2 0.714963
10 *2:0 *2 42.4694
*END

*D_NET *3 0.000617973

*CONN
*I *57:A2 I *C 4.005000114 10.17599964 *L 0.000679 *D AOI22D1BWP16P90LVT
*P *3 I *C 6.047999859 14.97599983 *L 0

*CAP
1 *57:A2 5.42785e-06
2 *3:1 9.4282e-06
3 *3:2 7.12258e-06
4 *3:3 1.05863e-05
5 *3:4 1.36549e-05
6 *3:5 0.000193718
7 *3:6 0.000193718
8 *3:7 7.96452e-05
9 *3:8 7.96452e-05
10 *3:9 1.56084e-05
11 *3 9.4176e-06

*RES
1 *3:9 *3 2.80284
2 *3:8 *3:9 3.6
3 *3:7 *3:8 18.3749
4 *3:6 *3:7 3.6
5 *3:5 *3:6 55.3167
6 *3:4 *3:5 3.6
7 *3:3 *3:4 1.59169
8 *3:2 *3:3 0.665805
9 *3:1 *3:2 0.853063
10 *57:A2 *3:1 3.6
*END

*D_NET *4 0.000910201

*CONN
*I *58:A2 I *C 4.005000114 10.94400024 *L 0.000679 *D AOI22D1BWP16P90LVT
*P *4 I *C 8.991999626 14.97599983 *L 0

*CAP
1 *4:0 2.8831e-06
2 *4:1 9.11513e-06
3 *4:2 8.27788e-06
4 *58:A2 4.14494e-06
5 *4:4 1.09716e-05
6 *4:5 8.00123e-06
7 *4:6 4.04306e-06
8 *4:7 0.000254627
9 *4:8 0.000254627
10 *4:9 4.98647e-05
11 *4:10 4.76602e-05
12 *4:11 0.000130522
13 *4 0.000125463

*RES
1 *4:11 *4 35.8624
2 *4:10 *4:11 1.44606
3 *4:9 *4:10 11.4439
4 *4:8 *4:9 3.6
5 *4:7 *4:8 47.9515
6 *4:5 *4:7 3.6
7 *4:4 *4:6 2.71706
8 *4:4 *4:5 0.19435
9 *4:2 *4:4 3.6
10 *4:1 *58:A2 3.6
11 *4:1 *4:2 0.408435
12 *4:0 *4:1 2.23758
*END

*D_NET *5 0.000755516

*CONN
*I *53:B2 I *C 6.108500004 12.04950047 *L 0.00073 *D AOI22D1BWP16P90LVT
*P *5 I *C 11.93599987 14.97599983 *L 0

*CAP
1 *53:B2 6.15173e-06
2 *5:1 1.20121e-05
3 *5:2 0.0001751
4 *5:3 0.000171975
5 *5:4 6.7564e-05
6 *5:5 6.74049e-05
7 *5:6 9.94206e-06
8 *5:7 1.35568e-05
9 *5:8 8.77667e-06
10 *5:9 2.90912e-06
11 *5:10 0.000110223
12 *5 0.0001099

*RES
1 *5:10 *5 32.9043
2 *5:9 *5:10 0.0967775
3 *5:8 *5:9 0.77422
4 *5:7 *5:8 3.6
5 *5:6 *5:7 1.737
6 *5:5 *5:6 0.607475
7 *5:4 *5:5 14.5929
8 *5:3 *5:4 0.610929
9 *5:2 *5:3 37.8013
10 *5:1 *5:2 3.6
11 *53:B2 *5:1 1.77284
*END

*D_NET *6 0.00117236

*CONN
*P *6 I *C 14.93400002 14.97599983 *L 0
*I *55:B2 I *C 6.108500004 11.37450027 *L 0.00073 *D AOI22D1BWP16P90LVT

*CAP
1 *6:0 2.01954e-07
2 *6:1 8.12216e-06
3 *6:2 7.38857e-07
4 *6:3 0.000410152
5 *6:4 0.000139129
6 *6:5 0.000410152
7 *6 0.000139047
8 *6:7 1.20034e-05
9 *6:8 6.93665e-06
10 *6:9 3.99411e-06
11 *6:10 1.13731e-05
12 *6:11 1.10427e-05
13 *6:12 1.26664e-05
14 *55:B2 6.80603e-06

*RES
1 *6:12 *55:B2 1.73131
2 *6:11 *6:12 3.6
3 *6:10 *6:11 0.935784
4 *6:8 *6:10 3.6
5 *6:7 *6:9 2.52172
6 *6:7 *6:8 0.189732
7 *6:5 *6:7 3.6
8 *6:4 *6 40.0944
9 *6:3 *6:5 76.0349
10 *6:2 *6:4 0.0233919
11 *6:1 *6:3 3.6
12 *6:1 *6:2 0.187135
13 *6:0 *6:1 1.04776
*END

*D_NET *7 0.00123332

*CONN
*P *7 I *C 0 0.09000000358 *L 0
*I *52:A2 I *C 5.085000038 8.640000343 *L 0.000679 *D AOI22D1BWP16P90LVT

*CAP
1 *7 0.000220491
2 *7:1 0.000226681
3 *7:2 0.000377183
4 *7:3 0.000377183
5 *7:4 1.48428e-05
6 *7:5 1.2797e-05
7 *52:A2 4.14494e-06

*RES
1 *7:5 *52:A2 3.6
2 *7:4 *7:5 1.56846
3 *7:3 *7:4 3.6
4 *7:2 *7:3 99.5229
5 *7:1 *7:2 3.6
6 *7 *7:1 44.1149
*END

*D_NET *8 0.00103637

*CONN
*I *56:A2 I *C 5.625 8.640000343 *L 0.000679 *D AOI22D1BWP16P90LVT
*P *8 I *C 0 3.059999943 *L 0

*CAP
1 *8:0 7.0326e-07
2 *8:1 9.06195e-06
3 *8:2 1.04045e-05
4 *56:A2 4.14494e-06
5 *8:4 6.81081e-05
6 *8:5 6.81081e-05
7 *8:6 1.54901e-05
8 *8:7 1.54901e-05
9 *8:8 0.000180167
10 *8:9 0.000180167
11 *8:10 0.000218057
12 *8:11 0.00022061
13 *8:12 2.7303e-05
14 *8 1.85592e-05

*RES
1 *8:12 *8 3.88176
2 *8:11 *8:12 1.82882
3 *8:10 *8:11 44.3131
4 *8:9 *8:10 3.6
5 *8:8 *8:9 47.2798
6 *8:7 *8:8 3.6
7 *8:6 *8:7 1.7514
8 *8:5 *8:6 3.6
9 *8:4 *8:5 16.0635
10 *8:2 *8:4 3.6
11 *8:1 *56:A2 3.6
12 *8:1 *8:2 0.793604
13 *8:0 *8:1 1.4562
*END

*D_NET *9 0.000599574

*CONN
*P *9 I *C 0 6.03000021 *L 0
*I *54:A2 I *C 3.734999895 7.487999916 *L 0.000679 *D AOI22D1BWP16P90LVT

*CAP
1 *9 7.41186e-05
2 *9:1 7.97032e-05
3 *9:2 0.00012585
4 *9:3 0.000126456
5 *9:4 6.54495e-05
6 *9:5 6.54495e-05
7 *9:6 2.46592e-05
8 *9:7 2.16036e-05
9 *9:8 9.70984e-06
10 *54:A2 6.57462e-06

*RES
1 *9:8 *54:A2 3.6
2 *9:7 *9:8 0.71326
3 *9:6 *9:7 4.20155
4 *9:5 *9:6 3.6
5 *9:4 *9:5 16.6386
6 *9:3 *9:4 3.6
7 *9:2 *9:3 27.3602
8 *9:1 *9:2 1.27049
9 *9 *9:1 16.8619
*END

*D_NET *10 0.000412875

*CONN
*P *10 I *C 0 8.909999847 *L 0
*I *51:A2 I *C 3.914999962 8.640000343 *L 0.000679 *D AOI22D1BWP16P90LVT

*CAP
1 *10 2.13381e-05
2 *10:1 3.46435e-05
3 *10:2 0.000164101
4 *10:3 0.000153949
5 *10:4 1.68536e-05
6 *10:5 1.78447e-05
7 *51:A2 4.14494e-06

*RES
1 *10:5 *51:A2 3.6
2 *10:4 *10:5 3.39439
3 *10:3 *10:4 0.781442
4 *10:2 *10:3 37.3627
5 *10:1 *10:2 3.29671
6 *10 *10:1 5.28694
*END

*D_NET *11 0.000541435

*CONN
*P *11 I *C 0 11.88000011 *L 0
*I *57:B2 I *C 3.701499939 10.22249985 *L 0.00073 *D AOI22D1BWP16P90LVT

*CAP
1 *11:0 4.45786e-05
2 *11:1 4.40662e-05
3 *11:2 3.08491e-05
4 *11:3 1.04819e-05
5 *11:4 3.21082e-05
6 *11:5 1.22533e-05
7 *11:6 0.000155512
8 *11:7 8.33522e-06
9 *11:8 0.000155944
10 *11 2.90737e-06
11 *11:10 2.51295e-05
12 *57:B2 1.92691e-05

*RES
1 *11:10 *57:B2 5.45407
2 *11:8 *11:10 3.6
3 *11:7 *11 0.812237
4 *11:6 *11:8 34.7642
5 *11:5 *11:7 3.6
6 *11:4 *11:6 3.6
7 *11:3 *11:5 2.17984
8 *11:2 *11:4 7.55179
9 *11:1 *11:3 1.16777
10 *11:0 *11:2 1.17997
11 *11:0 *11:1 11.7212
*END

*D_NET *12 0.000707831

*CONN
*P *12 I *C 0 14.88599968 *L 0
*I *58:B2 I *C 3.701499939 10.89750004 *L 0.00073 *D AOI22D1BWP16P90LVT

*CAP
1 *12 1.03111e-05
2 *12:1 1.5739e-05
3 *12:2 0.000169704
4 *12:3 0.000169704
5 *12:4 0.000158776
6 *12:5 0.000158776
7 *12:6 8.38278e-06
8 *12:7 9.69588e-06
9 *58:B2 6.74094e-06

*RES
1 *12:7 *58:B2 1.81346
2 *12:6 *12:7 0.794941
3 *12:5 *12:6 3.6
4 *12:4 *12:5 31.5882
5 *12:3 *12:4 3.6
6 *12:2 *12:3 48.5447
7 *12:1 *12:2 3.6
8 *12 *12:1 2.48857
*END

*D_NET *13 0.000975473

*CONN
*P *13 I *C 0.09600000083 0 *L 0
*I *54:B2 I *C 3.431499958 7.441500187 *L 0.00073 *D AOI22D1BWP16P90LVT

*CAP
1 *13:0 0.000172042
2 *13:1 0.000139818
3 *13:2 0.000177892
4 *13 0.000139477
5 *13:4 0.000161113
6 *13:5 0.00016035
7 *13:6 8.37694e-06
8 *13:7 9.6767e-06
9 *54:B2 6.72761e-06

*RES
1 *13:7 *54:B2 1.75181
2 *13:6 *13:7 0.767918
3 *13:5 *13:6 3.6
4 *13:4 *13:5 29.4514
5 *13:2 *13:4 3.6
6 *13:1 *13 39.1631
7 *13:0 *13:2 46.7076
8 *13:0 *13:1 0.0955197
*END

*D_NET *14 0.000807445

*CONN
*P *14 I *C 3.104000092 0 *L 0
*I *51:B2 I *C 3.611500025 8.593500137 *L 0.00073 *D AOI22D1BWP16P90LVT

*CAP
1 *14:0 0.000225151
2 *14:1 0.000139687
3 *14:2 0.000231002
4 *14 0.000139347
5 *14:4 2.41106e-05
6 *14:5 2.33476e-05
7 *14:6 8.37967e-06
8 *14:7 9.68567e-06
9 *51:B2 6.73385e-06

*RES
1 *14:7 *51:B2 1.78065
2 *14:6 *14:7 0.78056
3 *14:5 *14:6 3.6
4 *14:4 *14:5 3.54013
5 *14:2 *14:4 3.6
6 *14:1 *14 39.8057
7 *14:0 *14:2 61.5252
8 *14:0 *14:1 0.0970871
*END

*D_NET *15 0.000928835

*CONN
*I *52:B2 I *C 4.781499863 8.593500137 *L 0.00073 *D AOI22D1BWP16P90LVT
*P *15 I *C 6.047999859 0 *L 0

*CAP
1 *52:B2 6.57462e-06
2 *15:1 9.67912e-06
3 *15:2 5.19033e-06
4 *15:3 8.27662e-06
5 *15:4 2.09427e-05
6 *15:5 2.09427e-05
7 *15:6 6.53602e-05
8 *15:7 6.53602e-05
9 *15:8 0.000224795
10 *15:9 0.000218948
11 *15:10 0.000141555
12 *15 0.000141211

*RES
1 *15:10 *15 39.4861
2 *15:9 *15:10 0.0963075
3 *15:8 *15:9 58.7237
4 *15:7 *15:8 3.6
5 *15:6 *15:7 11.415
6 *15:5 *15:6 3.6
7 *15:4 *15:5 3.86931
8 *15:3 *15:4 3.6
9 *15:2 *15:3 0.403839
10 *15:1 *15:2 0.601063
11 *52:B2 *15:1 3.6
*END

*D_NET *16 0.00122226

*CONN
*I *56:B2 I *C 5.321499825 8.593500137 *L 0.00073 *D AOI22D1BWP16P90LVT
*P *16 I *C 8.991999626 0 *L 0

*CAP
1 *16:0 3.19103e-06
2 *16:1 1.1928e-05
3 *16:2 5.74513e-05
4 *16:3 7.66428e-06
5 *16:4 5.74513e-05
6 *16:5 8.3678e-06
7 *16:6 0.000228751
8 *16:7 5.27322e-06
9 *16:8 0.000227678
10 *16:9 5.27322e-06
11 *16:10 0.00012499
12 *16:11 5.27322e-06
13 *16:12 0.00012499
14 *16:13 6.91807e-06
15 *16:14 6.96369e-05
16 *16:15 9.24972e-06
17 *16:16 6.86183e-05
18 *56:B2 5.42785e-06
19 *16:18 9.96517e-05
20 *16 9.44795e-05

*RES
1 *16:18 *16 25.8553
2 *16:16 *16:18 1.41544
3 *16:15 *56:B2 3.6
4 *16:14 *16:16 17.3627
5 *16:13 *16:15 0.704553
6 *16:12 *16:14 3.6
7 *16:11 *16:13 0.570777
8 *16:10 *16:12 23.617
9 *16:9 *16:11 0.401328
10 *16:8 *16:10 3.6
11 *16:7 *16:9 0.570777
12 *16:6 *16:8 57.9394
13 *16:5 *16:7 0.401328
14 *16:4 *16:6 3.6
15 *16:3 *16:5 3.6
16 *16:2 *16:4 9.12925
17 *16:1 *16:3 0.379094
18 *16:1 *16:2 3.6
19 *16:0 *16:1 2.23758
*END

*D_NET *17 0.00139912

*CONN
*I *64:B1 I *C 4.90500021 7.93599987 *L 0.000653 *D IND2D1BWP16P90LVT
*I *63:A2 I *C 5.591499805 8 *L 0.000745 *D NR2D1BWP16P90LVT
*P *17 I *C 11.93599987 0 *L 0

*CAP
1 *64:B1 5.42785e-06
2 *17:1 1.84681e-05
3 *17:2 1.61313e-05
4 *17:3 2.31827e-05
5 *17:4 7.59816e-05
6 *17:5 5.36284e-05
7 *63:A2 5.42785e-06
8 *17:7 1.20715e-05
9 *17:8 1.52378e-05
10 *17:9 4.19535e-05
11 *17:10 3.87872e-05
12 *17:11 0.000219061
13 *17:12 0.000222085
14 *17:13 0.000191779
15 *17:14 0.000185922
16 *17:15 0.000137155
17 *17 0.000136822

*RES
1 *17:15 *17 37.9999
2 *17:14 *17:15 0.0926827
3 *17:13 *17:14 51.8192
4 *17:12 *17:13 3.6
5 *17:11 *17:12 38.0243
6 *17:10 *17:11 0.552131
7 *17:9 *17:10 6.21148
8 *17:8 *17:9 1.10426
9 *17:7 *17:8 1.55287
10 *17:5 *17:7 0.552131
11 *17:4 *63:A2 3.6
12 *17:4 *17:5 8.83346
13 *17:3 *17:4 3.58727
14 *17:2 *17:3 0.551887
15 *17:1 *17:2 2.32827
16 *64:B1 *17:1 3.6
*END

*D_NET *18 0.00216556

*CONN
*I *62:A2 I *C 5.804999828 9.791999817 *L 0.000751 *D AN2D1BWP16P90LVT
*I *60:B1 I *C 5.534999847 10.23999977 *L 0.00066 *D INR2D1BWP16P90LVT
*P *18 I *C 14.93400002 0 *L 0
*I *59:A2 I *C 4.308499813 8 *L 0.000745 *D NR2D1BWP16P90LVT
*I *61:A1 I *C 4.15199995 7.392000198 *L 0.000751 *D INR2D1BWP16P90LVT

*CAP
1 *18:0 1.94602e-06
2 *18:1 1.12147e-05
3 *18:2 4.49398e-05
4 *18:3 8.50574e-06
5 *18:4 3.59978e-05
6 *18:5 1.19228e-05
7 *62:A2 5.42785e-06
8 *18:7 2.14002e-05
9 *18:8 3.87491e-05
10 *18:9 1.8293e-05
11 *18:10 3.87491e-05
12 *18:11 9.65823e-06
13 *18:12 5.36525e-05
14 *60:B1 6.57462e-06
15 *18:14 0.000180135
16 *18:15 0.000130536
17 *18:16 4.30818e-05
18 *18:17 0.000407924
19 *18:18 4.61419e-05
20 *18:19 0.000407924
21 *18:20 1.79235e-05
22 *18:21 9.27006e-06
23 *18:22 1.17563e-05
24 *18:23 2.09023e-06
25 *18:24 1.17563e-05
26 *18:25 0.000198739
27 *18:26 1.17563e-05
28 *18 0.000198655
29 *18:28 2.31271e-05
30 *18:29 4.01184e-05
31 *18:30 2.69816e-05
32 *59:A2 5.42785e-06
33 *18:32 1.66708e-05
34 *18:33 1.35872e-05
35 *18:34 1.35872e-05
36 *18:35 1.01967e-05
37 *18:36 1.17441e-05
38 *18:37 1.26407e-05
39 *61:A1 6.75704e-06

*RES
1 *18:37 *61:A1 1.6868
2 *18:36 *18:37 1.46878
3 *18:35 *18:36 3.6
4 *18:34 *18:35 0.737995
5 *18:33 *18:34 1.57439
6 *18:32 *18:33 0.737995
7 *18:30 *18:32 2.09919
8 *18:29 *59:A2 3.6
9 *18:29 *18:30 2.49278
10 *18:28 *18:29 3.41118
11 *18:26 *18:28 0.524797
12 *18:25 *18 54.0288
13 *18:24 *18:26 1.47599
14 *18:23 *18:25 0.0227394
15 *18:22 *18:24 0.524797
16 *18:21 *18:23 0.545745
17 *18:20 *18:22 1.47599
18 *18:19 *18:21 3.6
19 *18:18 *18:20 1.57439
20 *18:17 *18:19 73.5361
21 *18:16 *18:18 6.25798
22 *18:15 *18:17 3.6
23 *18:14 *18:16 3.6
24 *18:14 *18:15 31.0123
25 *18:12 *18:14 12.4973
26 *18:11 *60:B1 3.6
27 *18:10 *18:12 0.735138
28 *18:9 *18:11 0.524797
29 *18:8 *18:10 8.82166
30 *18:7 *18:9 2.56801
31 *18:5 *18:8 0.735138
32 *18:4 *18:7 3.6
33 *18:3 *62:A2 3.6
34 *18:2 *18:5 2.20541
35 *18:2 *18:4 7.35138
36 *18:1 *18:3 0.509399
37 *18:1 *18:2 3.6
38 *18:0 *18:1 0.284137
*END

*D_NET *19 0.00179003

*CONN
*I *44:CP I *C 10.93500042 6.71999979 *L 0.000506 *D DFQD2BWP16P90LVT
*I *46:CP I *C 10.93500042 7.487999916 *L 0.000506 *D DFQD2BWP16P90LVT
*P *19 I *C 15.02999973 0.09000000358 *L 0
*I *45:CP I *C 5.085000038 7.487999916 *L 0.000506 *D DFQD2BWP16P90LVT
*I *43:CP I *C 5.085000038 6.71999979 *L 0.000506 *D DFQD2BWP16P90LVT

*CAP
1 *19:0 2.0125e-06
2 *19:1 1.06759e-05
3 *19:2 0.000277748
4 *19:3 8.33295e-06
5 *19:4 3.25588e-05
6 *19:5 0.000278118
7 *44:CP 5.86038e-06
8 *19:7 3.07835e-05
9 *19:8 0.000294432
10 *19:9 0.000182185
11 *19:10 1.34319e-05
12 *19:11 0.000294432
13 *19:12 0.000182185
14 *19:13 1.26689e-05
15 *19:14 3.2552e-05
16 *19:15 1.13009e-05
17 *46:CP 5.42785e-06
18 *19:17 3.07769e-05
19 *19:18 6.89325e-06
20 *19:19 6.42699e-06
21 *19:20 3.80126e-06
22 *19:21 1.23767e-05
23 *19:22 1.08188e-05
24 *19:23 8.5137e-06
25 *19:24 1.16137e-05
26 *19:25 7.08845e-06
27 *19:26 3.39995e-06
28 *19 2.32291e-06
29 *45:CP 5.42785e-06
30 *43:CP 5.86038e-06

*RES
1 *19:25 *43:CP 3.6
2 *19:24 *45:CP 3.6
3 *19:23 *19 0.956106
4 *19:22 *19:26 2.32637
5 *19:22 *19:25 0.405109
6 *19:21 *19:24 2.04055
7 *19:19 *19:23 3.6
8 *19:18 *19:22 3.6
9 *19:17 *19:21 3.6
10 *19:15 *19:20 0.284137
11 *19:15 *19:19 0.0896773
12 *19:14 *19:18 0.23951
13 *19:14 *19:17 8.38283
14 *19:13 *46:CP 3.6
15 *19:12 *19:15 3.6
16 *19:11 *19:14 3.6
17 *19:10 *19:13 2.45479
18 *19:9 *19:12 20.133
19 *19:8 *19:11 30.9241
20 *19:7 *19:10 3.6
21 *19:5 *19:9 3.6
22 *19:4 *19:8 3.6
23 *19:4 *19:7 8.38461
24 *19:3 *44:CP 3.6
25 *19:2 *19:5 99.0936
26 *19:2 *19:4 0.23956
27 *19:1 *19:3 0.83822
28 *19:1 *19:2 3.6
29 *19:0 *19:1 0.284137
*END

*D_NET *20 0.00136545

*CONN
*I *64:A1 I *C 5.118000031 7.967999935 *L 0.000752 *D IND2D1BWP16P90LVT
*I *63:A1 I *C 5.743000031 7.917500019 *L 0.000656 *D NR2D1BWP16P90LVT
*P *20 I *C 15.02999973 3.059999943 *L 0

*CAP
1 *64:A1 6.76447e-06
2 *20:1 1.26248e-05
3 *20:2 3.64488e-05
4 *20:3 7.52765e-05
5 *20:4 4.50185e-05
6 *20:5 1.27037e-05
7 *20:6 0.000215246
8 *63:A1 6.84329e-06
9 *20:8 0.000215246
10 *20:9 0.000345802
11 *20:10 0.000348317
12 *20:11 2.69295e-05
13 *20 1.82233e-05

*RES
1 *20:11 *20 3.63792
2 *20:10 *20:11 1.73802
3 *20:9 *20:10 66.2026
4 *20:8 *20:9 3.6
5 *20:6 *20:8 54.6034
6 *20:5 *63:A1 1.7228
7 *20:4 *20:6 3.6
8 *20:3 *20:5 3.6
9 *20:3 *20:4 6.79393
10 *20:2 *20:3 5.45098
11 *20:1 *20:2 3.6
12 *64:A1 *20:1 1.72117
*END

*D_NET *21 0.000875075

*CONN
*I *43:Q O *C 6.222000122 6.967000008 *L 0 *D DFQD2BWP16P90LVT
*P *21 O *C 15.02999973 6.03000021 *L 0

*CAP
1 *43:Q 8.39742e-06
2 *21:1 1.42578e-05
3 *21:2 0.000151741
4 *21:3 0.000161598
5 *21:4 0.000264199
6 *21:5 0.000261681
7 *21 1.32e-05

*RES
1 *21:5 *21 2.86655
2 *21:4 *21:5 51.4643
3 *21:3 *21:4 3.0356
4 *21:2 *21:3 28.1741
5 *21:1 *21:2 3.6
6 *43:Q *21:1 2.18967
*END

*D_NET *22 0.000645927

*CONN
*I *44:Q O *C 9.798000336 6.967000008 *L 0 *D DFQD2BWP16P90LVT
*P *22 O *C 15.02999973 8.909999847 *L 0

*CAP
1 *44:Q 5.42785e-06
2 *22:1 0.000212472
3 *22:2 0.000212472
4 *22:3 8.67772e-05
5 *22:4 8.67772e-05
6 *22:5 2.37144e-05
7 *22 1.82866e-05

*RES
1 *22:5 *22 4.30326
2 *22:4 *22:5 3.6
3 *22:3 *22:4 24.7105
4 *22:2 *22:3 3.6
5 *22:1 *22:2 46.5616
6 *44:Q *22:1 3.6
*END

*D_NET *23 0.000880389

*CONN
*I *46:Q O *C 9.798000336 7.241000175 *L 0 *D DFQD2BWP16P90LVT
*P *23 O *C 15.02999973 11.88000011 *L 0

*CAP
1 *46:Q 5.42785e-06
2 *23:1 2.60233e-05
3 *23:2 2.67863e-05
4 *23:3 0.000208625
5 *23:4 0.000208625
6 *23:5 7.94716e-06
7 *23:6 1.16949e-05
8 *23:7 0.000197599
9 *23 0.000187661

*RES
1 *23:7 *23 42.2639
2 *23:6 *23:7 2.15562
3 *23:5 *23:6 0.38095
4 *23:4 *23:5 3.6
5 *23:3 *23:4 52.7264
6 *23:2 *23:3 3.6
7 *23:1 *23:2 3.9385
8 *46:Q *23:1 3.6
*END

*D_NET *24 0.00146834

*CONN
*I *45:Q O *C 6.222000122 7.241000175 *L 0 *D DFQD2BWP16P90LVT
*P *24 O *C 15.02999973 14.88599968 *L 0

*CAP
1 *24:0 3.65273e-06
2 *24:1 1.08999e-05
3 *45:Q 5.86038e-06
4 *24:3 7.57759e-06
5 *24:4 0.000346703
6 *24:5 0.000346703
7 *24:6 1.10726e-05
8 *24:7 7.64667e-06
9 *24:8 0.000235602
10 *24:9 0.000233908
11 *24:10 0.000129891
12 *24 0.00012882

*RES
1 *24:10 *24 26.0751
2 *24:9 *24:10 0.216806
3 *24:8 *24:9 45.2325
4 *24:7 *24:8 0.536194
5 *24:6 *24:7 0.946718
6 *24:5 *24:6 3.6
7 *24:4 *24:5 88.2732
8 *24:3 *24:4 3.6
9 *24:1 *24:3 0.237827
10 *24:1 *45:Q 3.6
11 *24:0 *24:1 2.50396
*END

*D_NET *25 0.000368923

*CONN
*I *62:A1 I *C 5.684000015 9.696499825 *L 0.000655 *D AN2D1BWP16P90LVT
*I *63:ZN O *C 5.752999783 8.102499962 *L 0 *D NR2D1BWP16P90LVT
*I *60:A1 I *C 5.748000145 10.27200031 *L 0.000751 *D INR2D1BWP16P90LVT

*CAP
1 *25:0 2.23494e-06
2 *25:1 1.04862e-05
3 *25:2 1.06488e-05
4 *25:3 8.40505e-06
5 *25:4 8.95524e-05
6 *25:5 3.01658e-05
7 *25:6 9.1642e-06
8 *25:7 8.95524e-05
9 *25:8 4.16524e-05
10 *62:A1 6.187e-06
11 *25:10 1.12303e-05
12 *25:11 1.85491e-05
13 *25:12 9.19237e-06
14 *25:13 1.27499e-06
15 *25:14 8.4276e-06
16 *63:ZN 5.42785e-06
17 *25:16 9.88558e-06
18 *60:A1 6.88583e-06

*RES
1 *25:16 *60:A1 2.06453
2 *25:14 *25:16 0.898928
3 *25:12 *63:ZN 3.6
4 *25:11 *25:14 3.6
5 *25:10 *25:13 1.4562
6 *25:10 *25:12 0.998362
7 *25:8 *25:11 3.52954
8 *25:7 *25:10 3.6
9 *25:6 *62:A1 1.86594
10 *25:5 *25:8 7.56653
11 *25:4 *25:7 25.1411
12 *25:3 *25:6 0.897897
13 *25:2 *25:5 0.433499
14 *25:2 *25:4 3.6
15 *25:1 *25:3 3.6
16 *25:1 *25:2 0.748771
17 *25:0 *25:1 1.98896
*END

*D_NET *26 0.000175312

*CONN
*I *61:B1 I *C 4.364999771 7.423999786 *L 0.00066 *D INR2D1BWP16P90LVT
*I *59:A1 I *C 4.157000065 7.917500019 *L 0.000656 *D NR2D1BWP16P90LVT
*I *64:ZN O *C 4.815000057 7.808000088 *L 0 *D IND2D1BWP16P90LVT

*CAP
1 *26:0 4.55076e-06
2 *26:1 1.05276e-05
3 *26:2 6.73979e-06
4 *61:B1 5.42785e-06
5 *26:4 2.71001e-05
6 *26:5 2.71001e-05
7 *26:6 3.45395e-05
8 *26:7 2.32788e-05
9 *26:8 1.63581e-05
10 *26:9 1.00609e-05
11 *59:A1 5.42785e-06
12 *64:ZN 4.20053e-06

*RES
1 *26:9 *64:ZN 1.32669
2 *26:8 *59:A1 3.6
3 *26:7 *26:9 3.6
4 *26:6 *26:8 3.17786
5 *26:6 *26:7 5.06426
6 *26:5 *26:6 3.6
7 *26:4 *26:5 6.60395
8 *26:2 *26:4 3.6
9 *26:1 *61:B1 3.6
10 *26:1 *26:2 0.159618
11 *26:0 *26:1 2.04224
*END

*D_NET *27 0.00023083

*CONN
*I *48:A1 I *C 4.247000217 9.170499802 *L 0.00065 *D ND2D1BWP16P90LVT
*I *58:ZN O *C 3.825000048 11.00800037 *L 0 *D AOI22D1BWP16P90LVT

*CAP
1 *27:0 3.82101e-06
2 *27:1 1.04927e-05
3 *27:2 7.43461e-06
4 *27:3 8.41079e-06
5 *27:4 7.77814e-05
6 *27:5 9.3683e-06
7 *27:6 7.77814e-05
8 *48:A1 6.38536e-06
9 *27:8 1.19124e-05
10 *27:9 1.15819e-05
11 *58:ZN 5.86038e-06

*RES
1 *27:9 *58:ZN 3.6
2 *27:8 *27:9 1.60284
3 *27:6 *27:8 3.6
4 *27:5 *48:A1 1.97888
5 *27:4 *27:6 22.1866
6 *27:3 *27:5 0.92444
7 *27:2 *27:4 3.6
8 *27:1 *27:3 3.6
9 *27:1 *27:2 0.348442
10 *27:0 *27:1 2.55724
*END

*D_NET *28 0.000209859

*CONN
*I *57:ZN O *C 3.825000048 10.11200047 *L 0 *D AOI22D1BWP16P90LVT
*I *47:A1 I *C 5.022999763 9.170499802 *L 0.00065 *D ND2D1BWP16P90LVT

*CAP
1 *57:ZN 4.19458e-06
2 *28:1 1.0055e-05
3 *28:2 1.92923e-05
4 *28:3 6.11899e-05
5 *28:4 7.60147e-05
6 *28:5 3.36846e-05
7 *47:A1 5.42785e-06

*RES
1 *28:5 *47:A1 3.6
2 *28:4 *28:5 7.90654
3 *28:3 *28:4 13.3632
4 *28:2 *28:3 3.75839
5 *28:1 *28:2 3.6
6 *57:ZN *28:1 1.29917
*END

*D_NET *29 0.000264526

*CONN
*I *48:A2 I *C 4.398499966 9.088000298 *L 0.000743 *D ND2D1BWP16P90LVT
*I *56:ZN O *C 5.445000172 8.704000473 *L 0 *D AOI22D1BWP16P90LVT

*CAP
1 *29:0 3.23015e-06
2 *29:1 1.19851e-05
3 *29:2 3.91094e-05
4 *29:3 7.68234e-06
5 *29:4 3.91094e-05
6 *29:5 2.09693e-05
7 *29:6 3.5603e-05
8 *29:7 2.02063e-05
9 *29:8 3.45304e-05
10 *48:A2 5.42785e-06
11 *29:10 2.05712e-05
12 *29:11 2.02408e-05
13 *56:ZN 5.86038e-06

*RES
1 *29:11 *56:ZN 3.6
2 *29:10 *29:11 4.0349
3 *29:8 *29:10 3.6
4 *29:7 *48:A2 3.6
5 *29:6 *29:8 8.78971
6 *29:5 *29:7 4.1466
7 *29:4 *29:6 3.6
8 *29:3 *29:5 3.6
9 *29:2 *29:4 8.93543
10 *29:1 *29:3 0.462616
11 *29:1 *29:2 3.6
12 *29:0 *29:1 0.284137
*END

*D_NET *30 0.00066448

*CONN
*I *53:A1 I *C 5.894999981 12.09599972 *L 0.000608 *D AOI22D1BWP16P90LVT
*I *55:A1 I *C 5.894999981 11.32800007 *L 0.000608 *D AOI22D1BWP16P90LVT
*I *58:A1 I *C 3.914999962 10.94400024 *L 0.000608 *D AOI22D1BWP16P90LVT
*I *60:ZN O *C 5.445000172 10.17599964 *L 0 *D INR2D1BWP16P90LVT
*I *57:A1 I *C 3.914999962 10.17599964 *L 0.000608 *D AOI22D1BWP16P90LVT

*CAP
1 *30:0 1.68975e-06
2 *30:1 1.04256e-05
3 *30:2 3.92586e-05
4 *30:3 7.9729e-06
5 *30:4 5.72375e-05
6 *53:A1 5.42785e-06
7 *30:6 2.41697e-05
8 *30:7 1.1063e-05
9 *30:8 8.36268e-05
10 *30:9 8.35596e-06
11 *30:10 1.94407e-06
12 *30:11 0.000124272
13 *55:A1 5.42785e-06
14 *30:13 5.24562e-05
15 *30:14 2.38664e-05
16 *30:15 5.95555e-05
17 *30:16 2.09036e-05
18 *58:A1 5.42785e-06
19 *30:18 5.86728e-05
20 *30:19 7.59234e-06
21 *30:20 8.39897e-06
22 *30:21 1.07476e-05
23 *30:22 7.14927e-06
24 *30:23 1.00574e-05
25 *60:ZN 4.17814e-06
26 *30:25 9.17472e-06
27 *57:A1 5.42785e-06

*RES
1 *30:25 *57:A1 3.6
2 *30:23 *30:25 0.933882
3 *30:22 *60:ZN 1.22315
4 *30:21 *30:23 1.57285
5 *30:20 *30:22 0.869795
6 *30:19 *30:21 1.10591
7 *30:18 *30:20 3.6
8 *30:16 *30:19 0.786427
9 *30:15 *30:18 13.271
10 *30:14 *58:A1 3.6
11 *30:13 *30:16 4.42365
12 *30:13 *30:15 1.57285
13 *30:11 *30:14 4.59568
14 *30:11 *30:13 7.07785
15 *30:9 *55:A1 3.6
16 *30:8 *30:11 19.3198
17 *30:7 *30:10 1.72258
18 *30:7 *30:9 0.743269
19 *30:6 *30:8 3.6
20 *30:4 *30:7 3.6
21 *30:4 *30:6 5.22467
22 *30:3 *53:A1 3.6
23 *30:2 *30:4 10.3742
24 *30:1 *30:3 0.738069
25 *30:1 *30:2 3.6
26 *30:0 *30:1 1.72258
*END

*D_NET *31 0.000494584

*CONN
*I *55:ZN O *C 5.985000134 11.26399994 *L 0 *D AOI22D1BWP16P90LVT
*I *49:A2 I *C 7.391499996 7.93599987 *L 0.000743 *D ND2D1BWP16P90LVT

*CAP
1 *55:ZN 4.14494e-06
2 *31:1 3.96985e-05
3 *31:2 4.17444e-05
4 *31:3 0.0001559
5 *31:4 0.0001559
6 *31:5 1.29928e-05
7 *31:6 9.88939e-06
8 *31:7 2.04542e-05
9 *31:8 2.27946e-05
10 *31:9 1.14162e-05
11 *31:10 1.28188e-05
12 *49:A2 6.83047e-06

*RES
1 *31:10 *49:A2 1.94139
2 *31:9 *31:10 1.70204
3 *31:8 *31:9 3.6
4 *31:7 *31:8 4.17841
5 *31:6 *31:7 0.742829
6 *31:5 *31:6 1.63654
7 *31:4 *31:5 3.6
8 *31:3 *31:4 42.5511
9 *31:2 *31:3 3.6
10 *31:1 *31:2 8.55414
11 *55:ZN *31:1 3.6
*END

*D_NET *32 0.00066761

*CONN
*I *59:ZN O *C 4.146999836 8.102499962 *L 0 *D NR2D1BWP16P90LVT
*I *51:A1 I *C 3.825000048 8.640000343 *L 0.000608 *D AOI22D1BWP16P90LVT
*I *54:A1 I *C 3.644999981 7.487999916 *L 0.000608 *D AOI22D1BWP16P90LVT
*I *57:B1 I *C 3.825000048 10.23999977 *L 0.000668 *D AOI22D1BWP16P90LVT
*I *58:B1 I *C 3.825000048 10.88000011 *L 0.000668 *D AOI22D1BWP16P90LVT

*CAP
1 *32:0 4.49514e-06
2 *32:1 1.12541e-05
3 *59:ZN 5.42785e-06
4 *32:3 7.52188e-06
5 *32:4 4.63005e-05
6 *32:5 2.99595e-05
7 *32:6 2.36044e-05
8 *32:7 1.88115e-05
9 *32:8 3.566e-05
10 *32:9 2.12765e-05
11 *32:10 3.566e-05
12 *32:11 2.99595e-05
13 *32:12 7.89283e-06
14 *32:13 2.06333e-05
15 *32:14 2.99595e-05
16 *51:A1 5.42785e-06
17 *32:16 1.95607e-05
18 *32:17 2.58613e-05
19 *32:18 1.04799e-05
20 *32:19 7.96189e-05
21 *32:20 7.44425e-06
22 *32:21 9.21903e-05
23 *32:22 9.7298e-06
24 *32:23 3.2242e-05
25 *32:24 1.91713e-05
26 *54:A1 6.57462e-06
27 *32:26 1.91713e-05
28 *57:B1 5.86038e-06
29 *58:B1 5.86038e-06

*RES
1 *32:26 *58:B1 3.6
2 *32:24 *57:B1 3.6
3 *32:23 *32:26 3.31649
4 *32:22 *54:A1 3.6
5 *32:21 *32:24 3.31649
6 *32:21 *32:23 4.71679
7 *32:20 *32:22 0.786131
8 *32:19 *32:21 14.9365
9 *32:18 *32:20 1.06865
10 *32:17 *32:19 4.90104
11 *32:16 *32:18 3.6
12 *32:14 *32:17 3.6
13 *32:13 *32:16 3.91339
14 *32:12 *51:A1 3.6
15 *32:11 *32:14 6.95714
16 *32:10 *32:13 3.6
17 *32:9 *32:12 0.614165
18 *32:9 *32:11 3.6
19 *32:8 *32:10 7.07518
20 *32:7 *32:9 3.14452
21 *32:6 *32:8 3.6
22 *32:5 *32:7 3.6
23 *32:4 *32:6 4.78303
24 *32:4 *32:5 6.95714
25 *32:3 *32:4 3.6
26 *32:1 *32:3 0.331649
27 *32:1 *59:ZN 3.6
28 *32:0 *32:1 1.49172
*END

*D_NET *33 0.000114698

*CONN
*I *54:ZN O *C 3.555000067 7.552000046 *L 0 *D AOI22D1BWP16P90LVT
*I *50:A1 I *C 4.752999783 7.341499805 *L 0.00065 *D ND2D1BWP16P90LVT

*CAP
1 *54:ZN 4.20204e-06
2 *33:1 1.00624e-05
3 *33:2 4.7719e-05
4 *33:3 4.72865e-05
5 *50:A1 5.42785e-06

*RES
1 *33:3 *50:A1 3.6
2 *33:2 *33:3 12.2854
3 *33:1 *33:2 3.6
4 *54:ZN *33:1 1.33366
*END

*D_NET *34 0.00069413

*CONN
*I *62:Z O *C 5.985000134 9.727999687 *L 0 *D AN2D1BWP16P90LVT
*I *56:A1 I *C 5.534999847 8.640000343 *L 0.000608 *D AOI22D1BWP16P90LVT
*I *52:A1 I *C 4.994999886 8.640000343 *L 0.000608 *D AOI22D1BWP16P90LVT
*I *55:B1 I *C 5.985000134 11.3920002 *L 0.000668 *D AOI22D1BWP16P90LVT
*I *53:B1 I *C 5.985000134 12.03199959 *L 0.000668 *D AOI22D1BWP16P90LVT

*CAP
1 *34:1 1.36558e-05
2 *62:Z 5.42785e-06
3 *34:3 7.92298e-06
4 *34:4 9.57517e-06
5 *34:5 5.71122e-05
6 *34:6 3.87162e-05
7 *34:7 1.19815e-05
8 *34:8 4.81261e-05
9 *34:9 4.18275e-05
10 *34:10 8.08752e-05
11 *34:11 2.83482e-05
12 *34:12 4.47888e-05
13 *34:13 8.08752e-05
14 *34:14 2.75852e-05
15 *34:15 4.47888e-05
16 *34:16 1.16638e-05
17 *56:A1 5.42785e-06
18 *34:18 1.11697e-05
19 *34:19 2.55701e-05
20 *34:20 1.05829e-07
21 *34:21 1.03009e-05
22 *34:22 1.69016e-05
23 *34:23 1.03323e-05
24 *52:A1 5.42785e-06
25 *34:25 1.03323e-05
26 *34:26 6.81883e-06
27 *34:27 6.81883e-06
28 *34:28 9.25195e-06
29 *34:29 9.25195e-06
30 *55:B1 6.57462e-06
31 *53:B1 6.57462e-06

*RES
1 *34:29 *53:B1 3.6
2 *34:28 *55:B1 3.6
3 *34:27 *34:29 0.75649
4 *34:26 *34:28 0.75649
5 *34:25 *34:27 1.1702
6 *34:23 *34:26 1.1702
7 *34:22 *34:25 3.6
8 *34:21 *52:A1 3.6
9 *34:19 *34:23 3.6
10 *34:19 *34:22 3.41238
11 *34:18 *34:21 1.18825
12 *34:18 *34:20 0.284137
13 *34:16 *34:19 2.57571
14 *34:15 *34:18 3.6
15 *34:14 *56:A1 3.6
16 *34:13 *34:16 0.861309
17 *34:12 *34:15 11.1845
18 *34:11 *34:14 5.44067
19 *34:10 *34:13 22.394
20 *34:9 *34:12 3.6
21 *34:8 *34:11 3.6
22 *34:7 *34:10 0.861309
23 *34:6 *34:9 8.69758
24 *34:5 *34:8 12.0583
25 *34:5 *34:7 2.58393
26 *34:4 *34:6 0.762093
27 *34:3 *34:5 3.6
28 *34:1 *34:4 1.60754
29 *34:1 *34:3 0.428677
30 *34:1 *62:Z 3.6
31 *34:0 *34:1 2.36189
*END

*D_NET *35 0.000589257

*CONN
*I *50:A2 I *C 4.601500034 7.423999786 *L 0.000743 *D ND2D1BWP16P90LVT
*I *53:ZN O *C 5.985000134 12.15999985 *L 0 *D AOI22D1BWP16P90LVT

*CAP
1 *35:0 3.34526e-06
2 *35:1 1.0387e-05
3 *35:2 7.80473e-06
4 *50:A2 5.42785e-06
5 *35:4 1.21124e-05
6 *35:5 1.18433e-05
7 *35:6 0.000205134
8 *35:7 0.000205404
9 *35:8 6.11344e-05
10 *35:9 6.0804e-05
11 *53:ZN 5.86038e-06

*RES
1 *35:9 *53:ZN 3.6
2 *35:8 *35:9 14.5161
3 *35:7 *35:8 3.6
4 *35:6 *35:7 55.8583
5 *35:5 *35:6 1.64437
6 *35:4 *35:5 1.64437
7 *35:2 *35:4 3.6
8 *35:1 *50:A2 3.6
9 *35:1 *35:2 0.358069
10 *35:0 *35:1 0.284137
*END

*D_NET *36 0.000608392

*CONN
*I *54:B1 I *C 3.555000067 7.423999786 *L 0.000668 *D AOI22D1BWP16P90LVT
*I *61:ZN O *C 4.454999924 7.487999916 *L 0 *D INR2D1BWP16P90LVT
*I *51:B1 I *C 3.734999895 8.576000214 *L 0.000668 *D AOI22D1BWP16P90LVT
*I *52:B1 I *C 4.90500021 8.576000214 *L 0.000668 *D AOI22D1BWP16P90LVT
*I *56:B1 I *C 5.445000172 8.576000214 *L 0.000668 *D AOI22D1BWP16P90LVT

*CAP
1 *36:0 8.61394e-06
2 *36:1 3.94384e-05
3 *36:2 4.33793e-05
4 *36:3 3.43198e-05
5 *54:B1 5.86038e-06
6 *36:5 6.08149e-05
7 *36:6 1.77039e-05
8 *36:7 2.25537e-05
9 *36:8 8.3222e-05
10 *36:9 2.03993e-05
11 *36:10 1.75153e-05
12 *36:11 8.3222e-05
13 *61:ZN 5.86038e-06
14 *36:13 1.71849e-05
15 *36:14 2.36264e-05
16 *51:B1 5.86038e-06
17 *36:16 2.25537e-05
18 *36:17 2.05814e-05
19 *36:18 1.41928e-05
20 *36:19 6.52769e-06
21 *36:20 1.54785e-05
22 *36:21 9.73956e-06
23 *36:22 1.77414e-05
24 *52:B1 6.57462e-06
25 *56:B1 5.42785e-06

*RES
1 *36:22 *56:B1 3.6
2 *36:21 *52:B1 3.6
3 *36:20 *36:22 3.1972
4 *36:19 *36:21 0.82177
5 *36:18 *36:20 0.82177
6 *36:17 *36:19 0.873131
7 *36:17 *36:18 2.86336
8 *36:16 *36:17 3.6
9 *36:14 *36:16 4.88448
10 *36:13 *51:B1 3.6
11 *36:11 *36:14 3.6
12 *36:10 *36:13 2.9404
13 *36:9 *61:ZN 3.6
14 *36:8 *36:11 19.7225
15 *36:7 *36:10 3.6
16 *36:6 *36:9 3.77501
17 *36:5 *36:8 3.6
18 *36:5 *36:7 4.88448
19 *36:3 *36:6 0.82177
20 *36:2 *36:5 11.1011
21 *36:1 *54:B1 3.6
22 *36:1 *36:3 8.0893
23 *36:0 *36:2 3.6
24 *36:0 *36:1 0.629168
*END

*D_NET *37 8.30324e-05

*CONN
*I *47:A2 I *C 4.871500015 9.088000298 *L 0.000743 *D ND2D1BWP16P90LVT
*I *52:ZN O *C 4.90500021 8.704000473 *L 0 *D AOI22D1BWP16P90LVT

*CAP
1 *47:A2 5.42785e-06
2 *37:1 1.61315e-05
3 *37:2 2.67092e-05
4 *37:3 1.99569e-05
5 *37:4 9.3792e-06
6 *52:ZN 5.42785e-06

*RES
1 *37:4 *52:ZN 3.6