*SPEF "IEEE 1481-1998"
*DESIGN "mux4to1"
*DATE "Sun Nov 16 23:43:43 2025"
*VENDOR "Cadence Design Systems, Inc."
*PROGRAM "Innovus"
*VERSION "23.14-s088_1"
*DESIGN_FLOW "PIN_CAP NONE" "NAME_SCOPE LOCAL"
*DIVIDER /
*DELIMITER :
*BUS_DELIMITER []
*T_UNIT 1 NS
*C_UNIT 1 PF
*R_UNIT 1 OHM
*L_UNIT 1 HENRY

// MMMC spef file for corner 'best_case'

*NAME_MAP

*1 a[3]
*2 a[2]
*3 a[1]
*4 a[0]
*5 b[3]
*6 b[2]
*7 b[1]
*8 b[0]
*9 c[3]
*10 c[2]
*11 c[1]
*12 c[0]
*13 d[3]
*14 d[2]
*15 d[1]
*16 d[0]
*17 sel[1]
*18 sel[0]
*19 clk
*20 resetn
*21 out[3]
*22 out[2]
*23 out[1]
*24 out[0]
*25 n_0
*26 n_1
*27 n_2
*28 n_3
*29 n_4
*30 n_5
*31 n_6
*32 n_7
*33 n_8
*34 n_9
*35 n_10
*36 n_11
*37 n_12
*38 n_13
*39 n_14
*40 n_15
*41 n_16
*42 n_17
*43 out_reg\[3\]
*44 out_reg\[2\]
*45 out_reg\[0\]
*46 out_reg\[1\]
*47 g413__2398
*48 g415__5107
*49 g414__6260
*50 g416__4319
*51 g420__8428
*52 g417__5526
*53 g424__6783
*54 g421__3680
*55 g423__1617
*56 g422__2802
*57 g418__1705
*58 g419__5122
*59 g425__8246
*60 g426__7098
*61 g428__6131
*62 g427__1881
*63 g429__5115
*64 g430__7482


*PORTS

*1 I *C 0.096 14.976
*2 I *C 3.104 14.976
*3 I *C 6.048 14.976
*4 I *C 8.992 14.976
*5 I *C 11.936 14.976
*6 I *C 14.934 14.976
*7 I *C 0 0.09
*8 I *C 0 3.06
*9 I *C 0 6.03
*10 I *C 0 8.91
*11 I *C 0 11.88
*12 I *C 0 14.886
*13 I *C 0.096 0
*14 I *C 3.104 0
*15 I *C 6.048 0
*16 I *C 8.992 0
*17 I *C 11.936 0
*18 I *C 14.934 0
*19 I *C 15.03 0.09
*20 I *C 15.03 3.06
*21 O *C 15.03 6.03
*22 O *C 15.03 8.91
*23 O *C 15.03 11.88
*24 O *C 15.03 14.886


*D_NET *1 0.000692738

*CONN
*P *1 I *C 0.09600000083 14.97599983 *L 0
*I *53:A2 I *C 5.804999828 12.09599972 *L 0.000671 *D AOI22D1BWP16P90LVT

*CAP
1 *1:0 6.98629e-06
2 *1:1 0.000113062
3 *1:2 4.10211e-06
4 *1 0.000107629
5 *1:4 0.000228092
6 *1:5 0.000229205
7 *53:A2 3.66158e-06

*RES
1 *1:5 *53:A2 3.6
2 *1:4 *1:5 85.4482
3 *1:2 *1:4 0.965823
4 *1:1 *1 52.4925
5 *1:0 *1:2 0.588548
6 *1:0 *1:1 3.6
*END

*D_NET *2 0.000543752

*CONN
*P *2 I *C 3.104000092 14.97599983 *L 0
*I *55:A2 I *C 5.804999828 11.32800007 *L 0.000671 *D AOI22D1BWP16P90LVT

*CAP
1 *2:0 0.000134739
2 *2 0.000132319
3 *2:2 5.18606e-06
4 *2:3 8.19896e-06
5 *2:4 7.0189e-06
6 *2:5 4.48567e-06
7 *2:6 0.00011708
8 *2:7 0.00011708
9 *2:8 6.61006e-06
10 *2:9 7.37181e-06
11 *55:A2 3.66158e-06

*RES
1 *2:9 *55:A2 3.6
2 *2:8 *2:9 1.38947
3 *2:7 *2:8 1.0874
4 *2:6 *2:7 42.8162
5 *2:5 *2:6 1.0874
6 *2:4 *2:5 0.59467
7 *2:3 *2:4 3.6
8 *2:2 *2:3 1.30116
9 *2:0 *2:2 1.13852
10 *2:0 *2 67.5701
*END

*D_NET *3 0.000587695

*CONN
*I *57:A2 I *C 4.005000114 10.17599964 *L 0.000671 *D AOI22D1BWP16P90LVT
*P *3 I *C 6.047999859 14.97599983 *L 0

*CAP
1 *57:A2 4.82689e-06
2 *3:1 8.54526e-06
3 *3:2 6.62051e-06
4 *3:3 9.84008e-06
5 *3:4 1.2371e-05
6 *3:5 0.000184525
7 *3:6 0.000184525
8 *3:7 7.64871e-05
9 *3:8 7.64871e-05
10 *3:9 1.44505e-05
11 *3 9.01745e-06

*RES
1 *3:9 *3 4.45892
2 *3:8 *3:9 3.6
3 *3:7 *3:8 29.1273
4 *3:6 *3:7 3.6
5 *3:5 *3:6 88.0162
6 *3:4 *3:5 3.6
7 *3:3 *3:4 2.52674
8 *3:2 *3:3 1.05694
9 *3:1 *3:2 1.3542
10 *57:A2 *3:1 3.6
*END

*D_NET *4 0.000855082

*CONN
*I *58:A2 I *C 4.005000114 10.94400024 *L 0.000671 *D AOI22D1BWP16P90LVT
*P *4 I *C 8.991999626 14.97599983 *L 0

*CAP
1 *4:0 2.70017e-06
2 *4:1 8.31642e-06
3 *4:2 7.38773e-06
4 *58:A2 3.66158e-06
5 *4:4 9.91915e-06
6 *4:5 7.08641e-06
7 *4:6 3.79379e-06
8 *4:7 0.000237501
9 *4:8 0.000237501
10 *4:9 4.6579e-05
11 *4:10 4.50386e-05
12 *4:11 0.000125225
13 *4 0.000120371

*RES
1 *4:11 *4 57.0172
2 *4:10 *4:11 2.29908
3 *4:9 *4:10 18.2044
4 *4:8 *4:9 3.6
5 *4:7 *4:8 75.9487
6 *4:5 *4:7 3.6
7 *4:4 *4:6 4.37217
8 *4:4 *4:5 0.309233
9 *4:2 *4:4 3.6
10 *4:1 *58:A2 3.6
11 *4:1 *4:2 0.647125
12 *4:0 *4:1 3.60096
*END

*D_NET *5 0.000726941

*CONN
*I *53:B2 I *C 6.108500004 12.04950047 *L 0.000715 *D AOI22D1BWP16P90LVT
*P *5 I *C 11.93599987 14.97599983 *L 0

*CAP
1 *53:B2 5.89975e-06
2 *5:1 1.1011e-05
3 *5:2 0.000167918
4 *5:3 0.000165438
5 *5:4 6.51166e-05
6 *5:5 6.49978e-05
7 *5:6 9.69663e-06
8 *5:7 1.26172e-05
9 *5:8 7.94094e-06
10 *5:9 2.82136e-06
11 *5:10 0.000106898
12 *5 0.000106585

*RES
1 *5:10 *5 52.311
2 *5:9 *5:10 0.153856
3 *5:8 *5:9 1.23085
4 *5:7 *5:8 3.6
5 *5:6 *5:7 2.74902
6 *5:5 *5:6 0.961406
7 *5:4 *5:5 23.1069
8 *5:3 *5:4 0.967455
9 *5:2 *5:3 59.8613
10 *5:1 *5:2 3.6
11 *53:B2 *5:1 2.81897
*END

*D_NET *6 0.00111209

*CONN
*P *6 I *C 14.93400002 14.97599983 *L 0
*I *55:B2 I *C 6.108500004 11.37450027 *L 0.000715 *D AOI22D1BWP16P90LVT

*CAP
1 *6:0 1.9587e-07
2 *6:1 7.22696e-06
3 *6:2 7.16599e-07
4 *6:3 0.000387526
5 *6:4 0.000135073
6 *6:5 0.000387526
7 *6 0.000134994
8 *6:7 1.08382e-05
9 *6:8 6.13237e-06
10 *6:9 3.7448e-06
11 *6:10 1.028e-05
12 *6:11 9.95819e-06
13 *6:12 1.14924e-05
14 *55:B2 6.38119e-06

*RES
1 *6:12 *55:B2 2.75367
2 *6:11 *6:12 3.6
3 *6:10 *6:11 1.4799
4 *6:8 *6:10 3.6
5 *6:7 *6:9 4.05783
6 *6:7 *6:8 0.301772
7 *6:5 *6:7 3.6
8 *6:4 *6 63.707
9 *6:3 *6:5 120.209
10 *6:2 *6:4 0.0371658
11 *6:1 *6:3 3.6
12 *6:1 *6:2 0.297326
13 *6:0 *6:1 1.686
*END

*D_NET *7 0.00117896

*CONN
*P *7 I *C 0 0.09000000358 *L 0
*I *52:A2 I *C 5.085000038 8.640000343 *L 0.000671 *D AOI22D1BWP16P90LVT

*CAP
1 *7 0.00021386
2 *7:1 0.000219293
3 *7:2 0.000358375
4 *7:3 0.000358375
5 *7:4 1.35862e-05
6 *7:5 1.18147e-05
7 *52:A2 3.66158e-06

*RES
1 *7:5 *52:A2 3.6
2 *7:4 *7:5 2.48043
3 *7:3 *7:4 3.6
4 *7:2 *7:3 158.221
5 *7:1 *7:2 3.6
6 *7 *7:1 69.6688
*END

*D_NET *8 0.000987498

*CONN
*I *56:A2 I *C 5.625 8.640000343 *L 0.000671 *D AOI22D1BWP16P90LVT
*P *8 I *C 0 3.059999943 *L 0

*CAP
1 *8:0 6.60716e-07
2 *8:1 8.28113e-06
3 *8:2 9.3919e-06
4 *56:A2 3.66158e-06
5 *8:4 6.36077e-05
6 *8:5 6.36077e-05
7 *8:6 1.41698e-05
8 *8:7 1.41698e-05
9 *8:8 0.000170661
10 *8:9 0.000170661
11 *8:10 0.000210591
12 *8:11 0.000213625
13 *8:12 2.64386e-05
14 *8 1.79716e-05

*RES
1 *8:12 *8 6.13594
2 *8:11 *8:12 2.89084
3 *8:10 *8:11 70.0461
4 *8:9 *8:10 3.6
5 *8:8 *8:9 75.1866
6 *8:7 *8:8 3.6
7 *8:6 *8:7 2.77238
8 *8:5 *8:6 3.6
9 *8:4 *8:5 25.5518
10 *8:2 *8:4 3.6
11 *8:1 *56:A2 3.6
12 *8:1 *8:2 1.25624
13 *8:0 *8:1 2.34348
*END

*D_NET *9 0.00055179

*CONN
*P *9 I *C 0 6.03000021 *L 0
*I *54:A2 I *C 3.734999895 7.487999916 *L 0.000671 *D AOI22D1BWP16P90LVT

*CAP
1 *9 6.84702e-05
2 *9:1 7.36293e-05
3 *9:2 0.000116259
4 *9:3 0.000116533
5 *9:4 6.07265e-05
6 *9:5 6.07265e-05
7 *9:6 2.24941e-05
8 *9:7 1.99573e-05
9 *9:8 7.94531e-06
10 *54:A2 5.04902e-06

*RES
1 *9:8 *54:A2 3.6
2 *9:7 *9:8 1.13379
3 *9:6 *9:7 6.67876
4 *9:5 *9:6 3.6
5 *9:4 *9:5 26.503
6 *9:3 *9:4 3.6
7 *9:2 *9:3 43.4916
8 *9:1 *9:2 2.01957
9 *9 *9:1 26.8036
*END

*D_NET *10 0.000377786

*CONN
*P *10 I *C 0 8.909999847 *L 0
*I *51:A2 I *C 3.914999962 8.640000343 *L 0.000671 *D AOI22D1BWP16P90LVT

*CAP
1 *10 1.95384e-05
2 *10:1 3.17217e-05
3 *10:2 0.000150261
4 *10:3 0.000140965
5 *10:4 1.54322e-05
6 *10:5 1.62059e-05
7 *51:A2 3.66158e-06

*RES
1 *10:5 *51:A2 3.6
2 *10:4 *10:5 5.40458
3 *10:3 *10:4 1.24422
4 *10:2 *10:3 59.4892
5 *10:1 *10:2 5.24905
6 *10 *10:1 8.41792
*END

*D_NET *11 0.000501423

*CONN
*P *11 I *C 0 11.88000011 *L 0
*I *57:B2 I *C 3.701499939 10.22249985 *L 0.000715 *D AOI22D1BWP16P90LVT

*CAP
1 *11:0 4.18045e-05
2 *11:1 4.1439e-05
3 *11:2 2.87637e-05
4 *11:3 1.00951e-05
5 *11:4 2.97036e-05
6 *11:5 1.14004e-05
7 *11:6 0.000143225
8 *11:7 7.63325e-06
9 *11:8 0.000143509
10 *11 2.80635e-06
11 *11:10 2.30777e-05
12 *57:B2 1.79665e-05

*RES
1 *11:10 *57:B2 8.68875
2 *11:8 *11:10 3.6
3 *11:7 *11 1.28953
4 *11:6 *11:8 55.2808
5 *11:5 *11:7 3.6
6 *11:4 *11:6 3.6
7 *11:3 *11:5 3.46954
8 *11:2 *11:4 12.0306
9 *11:1 *11:3 1.85868
10 *11:0 *11:2 1.87978
11 *11:0 *11:1 18.6692
*END

*D_NET *12 0.000668752

*CONN
*P *12 I *C 0 14.88599968 *L 0
*I *58:B2 I *C 3.701499939 10.89750004 *L 0.000715 *D AOI22D1BWP16P90LVT

*CAP
1 *12 1.00097e-05
2 *12:1 1.48366e-05
3 *12:2 0.000162645
4 *12:3 0.000162645
5 *12:4 0.000147812
6 *12:5 0.000147812
7 *12:6 7.59463e-06
8 *12:7 9.08163e-06
9 *58:B2 6.3139e-06

*RES
1 *12:7 *58:B2 2.88648
2 *12:6 *12:7 1.26531
3 *12:5 *12:6 3.6
4 *12:4 *12:5 50.1071
5 *12:3 *12:4 3.6
6 *12:2 *12:3 77.2111
7 *12:1 *12:2 3.6
8 *12 *12:1 3.94152
*END

*D_NET *13 0.000922728

*CONN
*P *13 I *C 0.09600000083 0 *L 0
*I *54:B2 I *C 3.431499958 7.441500187 *L 0.000715 *D AOI22D1BWP16P90LVT

*CAP
1 *13:0 0.000163237
2 *13:1 0.000133664
3 *13:2 0.000168344
4 *13 0.000133338
5 *13:4 0.000150873
6 *13:5 0.000150267
7 *13:6 7.59687e-06
8 *13:7 9.08898e-06
9 *54:B2 6.319e-06

*RES
1 *13:7 *54:B2 2.78675
2 *13:6 *13:7 1.22159
3 *13:5 *13:6 3.6
4 *13:4 *13:5 46.6306
5 *13:2 *13:4 3.6
6 *13:1 *13 62.2732
7 *13:0 *13:2 74.2829
8 *13:0 *13:1 0.151886
*END

*D_NET *14 0.000764152

*CONN
*P *14 I *C 3.104000092 0 *L 0
*I *51:B2 I *C 3.611500025 8.593500137 *L 0.000715 *D AOI22D1BWP16P90LVT

*CAP
1 *14:0 0.000212874
2 *14:1 0.000133412
3 *14:2 0.000217982
4 *14 0.000133087
5 *14:4 2.22025e-05
6 *14:5 2.15964e-05
7 *14:6 7.59582e-06
8 *14:7 9.08554e-06
9 *51:B2 6.31661e-06

*RES
1 *14:7 *51:B2 2.83341
2 *14:6 *14:7 1.24204
3 *14:5 *14:6 3.6
4 *14:4 *14:5 5.61023
5 *14:2 *14:4 3.6
6 *14:1 *14 63.3123
7 *14:0 *14:2 97.8809
8 *14:0 *14:1 0.15442
*END

*D_NET *15 0.000873378

*CONN
*I *52:B2 I *C 4.781499863 8.593500137 *L 0.000715 *D AOI22D1BWP16P90LVT
*P *15 I *C 6.047999859 0 *L 0

*CAP
1 *52:B2 5.04902e-06
2 *15:1 7.95914e-06
3 *15:2 4.86536e-06
4 *15:3 7.3883e-06
5 *15:4 1.92805e-05
6 *15:5 1.92805e-05
7 *15:6 6.08448e-05
8 *15:7 6.08448e-05
9 *15:8 0.000211747
10 *15:9 0.000206643
11 *15:10 0.000134902
12 *15 0.000134574

*RES
1 *15:10 *15 62.7966
2 *15:9 *15:10 0.153162
3 *15:8 *15:9 93.4135
4 *15:7 *15:8 3.6
5 *15:6 *15:7 18.0793
6 *15:5 *15:6 3.6
7 *15:4 *15:5 6.15602
8 *15:3 *15:4 3.6
9 *15:2 *15:3 0.639682
10 *15:1 *15:2 0.952084
11 *52:B2 *15:1 3.6
*END

*D_NET *16 0.0011555

*CONN
*I *56:B2 I *C 5.321499825 8.593500137 *L 0.000715 *D AOI22D1BWP16P90LVT
*P *16 I *C 8.991999626 0 *L 0

*CAP
1 *16:0 3.00023e-06
2 *16:1 1.07797e-05
3 *16:2 5.34352e-05
4 *16:3 6.81845e-06
5 *16:4 5.34352e-05
6 *16:5 7.48186e-06
7 *16:6 0.000215424
8 *16:7 4.96265e-06
9 *16:8 0.000214463
10 *16:9 4.96265e-06
11 *16:10 0.000119672
12 *16:11 4.96265e-06
13 *16:12 0.000119672
14 *16:13 6.51064e-06
15 *16:14 6.59683e-05
16 *16:15 8.42368e-06
17 *16:16 6.54702e-05
18 *56:B2 4.82689e-06
19 *16:18 9.50798e-05
20 *16 9.01449e-05

*RES
1 *16:18 *16 41.1047
2 *16:16 *16:18 2.25026
3 *16:15 *56:B2 3.6
4 *16:14 *16:16 27.6032
5 *16:13 *16:15 1.11468
6 *16:12 *16:14 3.6
7 *16:11 *16:13 0.903035
8 *16:10 *16:12 37.3134
9 *16:9 *16:11 0.634947
10 *16:8 *16:10 3.6
11 *16:7 *16:9 0.903035
12 *16:6 *16:8 92.1373
13 *16:5 *16:7 0.634947
14 *16:4 *16:6 3.6
15 *16:3 *16:5 3.6
16 *16:2 *16:4 14.4397
17 *16:1 *16:3 0.602923
18 *16:1 *16:2 3.6
19 *16:0 *16:1 3.60061
*END

*D_NET *17 0.0013294

*CONN
*I *64:B1 I *C 4.90500021 7.93599987 *L 0.000637 *D IND2D1BWP16P90LVT
*I *63:A2 I *C 5.591499805 8 *L 0.000727 *D NR2D1BWP16P90LVT
*P *17 I *C 11.93599987 0 *L 0

*CAP
1 *64:B1 4.82689e-06
2 *17:1 1.71295e-05
3 *17:2 1.52188e-05
4 *17:3 2.18713e-05
5 *17:4 7.10906e-05
6 *17:5 5.02733e-05
7 *63:A2 4.82689e-06
8 *17:7 1.13033e-05
9 *17:8 1.42681e-05
10 *17:9 3.92837e-05
11 *17:10 3.63189e-05
12 *17:11 0.00020564
13 *17:12 0.000208109
14 *17:13 0.000184989
15 *17:14 0.000179878
16 *17:15 0.000132346
17 *17 0.000132024

*RES
1 *17:15 *17 60.3834
2 *17:14 *17:15 0.147277
3 *17:13 *17:14 82.3288
4 *17:12 *17:13 3.6
5 *17:11 *17:12 60.0843
6 *17:10 *17:11 0.872518
7 *17:9 *17:10 9.81583
8 *17:8 *17:9 1.74504
9 *17:7 *17:8 2.45396
10 *17:5 *17:7 0.872518
11 *17:4 *63:A2 3.6
12 *17:4 *17:5 13.9601
13 *17:3 *17:4 5.67087
14 *17:2 *17:3 0.872442
15 *17:1 *17:2 3.68061
16 *64:B1 *17:1 3.6
*END

*D_NET *18 0.0020615

*CONN
*I *62:A2 I *C 5.804999828 9.791999817 *L 0.000738 *D AN2D1BWP16P90LVT
*I *60:B1 I *C 5.534999847 10.23999977 *L 0.000644 *D INR2D1BWP16P90LVT
*P *18 I *C 14.93400002 0 *L 0
*I *59:A2 I *C 4.308499813 8 *L 0.000727 *D NR2D1BWP16P90LVT
*I *61:A1 I *C 4.15199995 7.392000198 *L 0.000742 *D INR2D1BWP16P90LVT

*CAP
1 *18:0 1.82519e-06
2 *18:1 1.0145e-05
3 *18:2 4.18485e-05
4 *18:3 7.71367e-06
5 *18:4 3.3445e-05
6 *18:5 1.12048e-05
7 *62:A2 4.82689e-06
8 *18:7 1.97943e-05
9 *18:8 3.64155e-05
10 *18:9 1.72808e-05
11 *18:10 3.64155e-05
12 *18:11 7.96853e-06
13 *18:12 5.04214e-05
14 *60:B1 5.04902e-06
15 *18:14 0.000169445
16 *18:15 0.000122786
17 *18:16 4.03222e-05
18 *18:17 0.000393444
19 *18:18 4.36477e-05
20 *18:19 0.000393444
21 *18:20 1.69697e-05
22 *18:21 8.33176e-06
23 *18:22 1.11307e-05
24 *18:23 2.01838e-06
25 *18:24 1.11307e-05
26 *18:25 0.000191908
27 *18:26 1.11307e-05
28 *18 0.000191827
29 *18:28 2.18964e-05
30 *18:29 3.76715e-05
31 *18:30 2.55458e-05
32 *59:A2 4.82689e-06
33 *18:32 1.57836e-05
34 *18:33 1.28641e-05
35 *18:34 1.28641e-05
36 *18:35 9.2168e-06
37 *18:36 1.06567e-05
38 *18:37 1.19142e-05
39 *61:A1 6.36866e-06

*RES
1 *18:37 *61:A1 2.68125
2 *18:36 *18:37 2.33469
3 *18:35 *18:36 3.6
4 *18:34 *18:35 1.16517
5 *18:33 *18:34 2.4857
6 *18:32 *18:33 1.16517
7 *18:30 *18:32 3.31427
8 *18:29 *59:A2 3.6
9 *18:29 *18:30 3.93569
10 *18:28 *18:29 5.38568
11 *18:26 *18:28 0.828567
12 *18:25 *18 85.8257
13 *18:24 *18:26 2.33034
14 *18:23 *18:25 0.0361219
15 *18:22 *18:24 0.828567
16 *18:21 *18:23 0.866926
17 *18:20 *18:22 2.33034
18 *18:19 *18:21 3.6
19 *18:18 *18:20 2.4857
20 *18:17 *18:19 115.956
21 *18:16 *18:18 9.88002
22 *18:15 *18:17 3.6
23 *18:14 *18:16 3.6
24 *18:14 *18:15 49.2916
25 *18:12 *18:14 19.8661
26 *18:11 *60:B1 3.6
27 *18:10 *18:12 1.1686
28 *18:9 *18:11 0.828567
29 *18:8 *18:10 14.0231
30 *18:7 *18:9 4.05416
31 *18:5 *18:8 1.1686
32 *18:4 *18:7 3.6
33 *18:3 *62:A2 3.6
34 *18:2 *18:5 3.50579
35 *18:2 *18:4 11.686
36 *18:1 *18:3 0.804046
37 *18:1 *18:2 3.6
38 *18:0 *18:1 0.457265
*END

*D_NET *19 0.00171005

*CONN
*I *44:CP I *C 10.93500042 6.71999979 *L 0.000497 *D DFQD2BWP16P90LVT
*I *46:CP I *C 10.93500042 7.487999916 *L 0.000497 *D DFQD2BWP16P90LVT
*P *19 I *C 15.02999973 0.09000000358 *L 0
*I *45:CP I *C 5.085000038 7.487999916 *L 0.000497 *D DFQD2BWP16P90LVT
*I *43:CP I *C 5.085000038 6.71999979 *L 0.000497 *D DFQD2BWP16P90LVT

*CAP
1 *19:0 1.87254e-06
2 *19:1 9.60623e-06
3 *19:2 0.000264649
4 *19:3 7.41186e-06
5 *19:4 3.01921e-05
6 *19:5 0.000264949
7 *44:CP 5.11123e-06
8 *19:7 2.857e-05
9 *19:8 0.000283927
10 *19:9 0.000178101
11 *19:10 1.21706e-05
12 *19:11 0.000283927
13 *19:12 0.000178101
14 *19:13 1.15644e-05
15 *19:14 3.02028e-05
16 *19:15 1.02857e-05
17 *46:CP 4.82689e-06
18 *19:17 2.85804e-05
19 *19:18 6.09441e-06
20 *19:19 5.66073e-06
21 *19:20 3.66392e-06
22 *19:21 1.11405e-05
23 *19:22 9.70317e-06
24 *19:23 7.65815e-06
25 *19:24 1.05344e-05
26 *19:25 6.24433e-06
27 *19:26 3.13701e-06
28 *19 2.22509e-06
29 *45:CP 4.82689e-06
30 *43:CP 5.11123e-06

*RES
1 *19:25 *43:CP 3.6
2 *19:24 *45:CP 3.6
3 *19:23 *19 1.5246
4 *19:22 *19:26 3.74386
5 *19:22 *19:25 0.646472
6 *19:21 *19:24 3.2563
7 *19:19 *19:23 3.6
8 *19:18 *19:22 3.6
9 *19:17 *19:21 3.6
10 *19:15 *19:20 0.45722
11 *19:15 *19:19 0.143003
12 *19:14 *19:18 0.382051
13 *19:14 *19:17 13.3718
14 *19:13 *46:CP 3.6
15 *19:12 *19:15 3.6
16 *19:11 *19:14 3.6
17 *19:10 *19:13 3.91607
18 *19:9 *19:12 31.3142
19 *19:8 *19:11 48.1049
20 *19:7 *19:10 3.6
21 *19:5 *19:9 3.6
22 *19:4 *19:8 3.6
23 *19:4 *19:7 13.3751
24 *19:3 *44:CP 3.6
25 *19:2 *19:5 158.049
26 *19:2 *19:4 0.382145
27 *19:1 *19:3 1.33719
28 *19:1 *19:2 3.6
29 *19:0 *19:1 0.457265
*END

*D_NET *20 0.00130148

*CONN
*I *64:A1 I *C 5.118000031 7.967999935 *L 0.000742 *D IND2D1BWP16P90LVT
*I *63:A1 I *C 5.743000031 7.917500019 *L 0.00064 *D NR2D1BWP16P90LVT
*P *20 I *C 15.02999973 3.059999943 *L 0

*CAP
1 *64:A1 6.36581e-06
2 *20:1 1.1477e-05
3 *20:2 3.39161e-05
4 *20:3 7.02688e-05
5 *20:4 4.17858e-05
6 *20:5 1.15344e-05
7 *20:6 0.000203371
8 *63:A1 6.42316e-06
9 *20:8 0.000203371
10 *20:9 0.000333105
11 *20:10 0.000336108
12 *20:11 2.60939e-05
13 *20 1.76579e-05

*RES
1 *20:11 *20 5.74375
2 *20:10 *20:11 2.74409
3 *20:9 *20:10 104.524
4 *20:8 *20:9 3.6
5 *20:6 *20:8 86.8092
6 *20:5 *63:A1 2.73958
7 *20:4 *20:6 3.6
8 *20:3 *20:5 3.6
9 *20:3 *20:4 10.7371
10 *20:2 *20:3 8.61712
11 *20:1 *20:2 3.6
12 *64:A1 *20:1 2.73685
*END

*D_NET *21 0.000824945

*CONN
*I *43:Q O *C 6.222000122 6.967000008 *L 0 *D DFQD2BWP16P90LVT
*P *21 O *C 15.02999973 6.03000021 *L 0

*CAP
1 *43:Q 7.85805e-06
2 *21:1 1.29693e-05
3 *21:2 0.000141233
4 *21:3 0.000150788
5 *21:4 0.000250685
6 *21:5 0.000248715
7 *21 1.26967e-05

*RES
1 *21:5 *21 4.53624
2 *21:4 *21:5 81.4641
3 *21:3 *21:4 4.80725
4 *21:2 *21:3 44.6173
5 *21:1 *21:2 3.6
6 *43:Q *21:1 3.48421
*END

*D_NET *22 0.000613891

*CONN
*I *44:Q O *C 9.798000336 6.967000008 *L 0 *D DFQD2BWP16P90LVT
*P *22 O *C 15.02999973 8.909999847 *L 0

*CAP
1 *44:Q 4.82689e-06
2 *22:1 0.000201001
3 *22:2 0.000201001
4 *22:3 8.35868e-05
5 *22:4 8.35868e-05
6 *22:5 2.2358e-05
7 *22 1.75311e-05

*RES
1 *22:5 *22 6.82031
2 *22:4 *22:5 3.6
3 *22:3 *22:4 39.2968
4 *22:2 *22:3 3.6
5 *22:1 *22:2 73.8144
6 *44:Q *22:1 3.6
*END

*D_NET *23 0.000836674

*CONN
*I *46:Q O *C 9.798000336 7.241000175 *L 0 *D DFQD2BWP16P90LVT
*P *23 O *C 15.02999973 11.88000011 *L 0

*CAP
1 *46:Q 4.82689e-06
2 *23:1 2.40514e-05
3 *23:2 2.46575e-05
4 *23:3 0.000195047
5 *23:4 0.000195047
6 *23:5 7.12534e-06
7 *23:6 1.12681e-05
8 *23:7 0.000192113
9 *23 0.000182537

*RES
1 *23:7 *23 66.8596
2 *23:6 *23:7 3.41156
3 *23:5 *23:6 0.602905
4 *23:4 *23:5 3.6
5 *23:3 *23:4 83.8912
6 *23:2 *23:3 3.6
7 *23:1 *23:2 6.2359
8 *46:Q *23:1 3.6
*END

*D_NET *24 0.00140783

*CONN
*I *45:Q O *C 6.222000122 7.241000175 *L 0 *D DFQD2BWP16P90LVT
*P *24 O *C 15.02999973 14.88599968 *L 0

*CAP
1 *24:0 3.42211e-06
2 *24:1 9.83259e-06
3 *45:Q 5.11123e-06
4 *24:3 6.7323e-06
5 *24:4 0.000328327
6 *24:5 0.000328327
7 *24:6 1.0163e-05
8 *24:7 7.40882e-06
9 *24:8 0.000228371
10 *24:9 0.000226741
11 *24:10 0.000127219
12 *24 0.00012617

*RES
1 *24:10 *24 41.1454
2 *24:9 *24:10 0.342111
3 *24:8 *24:9 71.4102
4 *24:7 *24:8 0.846527
5 *24:6 *24:7 1.49465
6 *24:5 *24:6 3.6
7 *24:4 *24:5 140.304
8 *24:3 *24:4 3.6
9 *24:1 *24:3 0.375694
10 *24:1 *45:Q 3.6
11 *24:0 *24:1 4.02965
*END

*D_NET *25 0.000337635

*CONN
*I *62:A1 I *C 5.684000015 9.696499825 *L 0.000639 *D AN2D1BWP16P90LVT
*I *63:ZN O *C 5.752999783 8.102499962 *L 0 *D NR2D1BWP16P90LVT
*I *60:A1 I *C 5.748000145 10.27200031 *L 0.000742 *D INR2D1BWP16P90LVT

*CAP
1 *25:0 2.03082e-06
2 *25:1 9.42323e-06
3 *25:2 9.48389e-06
4 *25:3 7.5861e-06
5 *25:4 8.26909e-05
6 *25:5 2.74106e-05
7 *25:6 8.49319e-06
8 *25:7 8.26909e-05
9 *25:8 3.79161e-05
10 *62:A1 5.73398e-06
11 *25:10 1.00123e-05
12 *25:11 1.68177e-05
13 *25:12 8.24759e-06
14 *25:13 1.15854e-06
15 *25:14 7.60085e-06
16 *63:ZN 4.82689e-06
17 *25:16 9.14263e-06
18 *60:A1 6.36867e-06

*RES
1 *25:16 *60:A1 3.29247
2 *25:14 *25:16 1.4336
3 *25:12 *63:ZN 3.6
4 *25:11 *25:14 3.6
5 *25:10 *25:13 2.34348
6 *25:10 *25:12 1.59153
7 *25:8 *25:11 5.62412
8 *25:7 *25:10 3.6
9 *25:6 *62:A1 2.97562
10 *25:5 *25:8 12.0621
11 *25:4 *25:7 40.0925
12 *25:3 *25:6 1.43188
13 *25:2 *25:5 0.691058
14 *25:2 *25:4 3.6
15 *25:1 *25:3 3.6
16 *25:1 *25:2 1.19365
17 *25:0 *25:1 3.20086
*END

*D_NET *26 0.00015769

*CONN
*I *61:B1 I *C 4.364999771 7.423999786 *L 0.000644 *D INR2D1BWP16P90LVT
*I *59:A1 I *C 4.157000065 7.917500019 *L 0.00064 *D NR2D1BWP16P90LVT
*I *64:ZN O *C 4.815000057 7.808000088 *L 0 *D IND2D1BWP16P90LVT

*CAP
1 *26:0 4.0885e-06
2 *26:1 9.40863e-06
3 *26:2 5.9263e-06
4 *61:B1 4.82689e-06
5 *26:4 2.47211e-05
6 *26:5 2.47211e-05
7 *26:6 3.09021e-05
8 *26:7 2.07603e-05
9 *26:8 1.46468e-05
10 *26:9 8.98607e-06
11 *59:A1 4.82689e-06
12 *64:ZN 3.87483e-06

*RES
1 *26:9 *64:ZN 2.11715
2 *26:8 *59:A1 3.6
3 *26:7 *26:9 3.6
4 *26:6 *26:8 5.0736
5 *26:6 *26:7 8.08532
6 *26:5 *26:6 3.6
7 *26:4 *26:5 10.5387
8 *26:2 *26:4 3.6
9 *26:1 *61:B1 3.6
10 *26:1 *26:2 0.254838
11 *26:0 *26:1 3.28659
*END

*D_NET *27 0.000210736

*CONN
*I *48:A1 I *C 4.247000217 9.170499802 *L 0.000634 *D ND2D1BWP16P90LVT
*I *58:ZN O *C 3.825000048 11.00800037 *L 0 *D AOI22D1BWP16P90LVT

*CAP
1 *27:0 3.44912e-06
2 *27:1 9.39878e-06
3 *27:2 6.55582e-06
4 *27:3 7.5839e-06
5 *27:4 7.16013e-05
6 *27:5 8.65873e-06
7 *27:6 7.16013e-05
8 *48:A1 5.90172e-06
9 *27:8 1.05978e-05
10 *27:9 1.02759e-05
11 *58:ZN 5.11123e-06

*RES
1 *27:9 *58:ZN 3.6
2 *27:8 *27:9 2.55748
3 *27:6 *27:8 3.6
4 *27:5 *48:A1 3.15703
5 *27:4 *27:6 35.3956
6 *27:3 *27:5 1.47482
7 *27:2 *27:4 3.6
8 *27:1 *27:3 3.6
9 *27:1 *27:2 0.555975
10 *27:0 *27:1 4.11539
*END

*D_NET *28 0.000189136

*CONN
*I *57:ZN O *C 3.825000048 10.11200047 *L 0 *D AOI22D1BWP16P90LVT
*I *47:A1 I *C 5.022999763 9.170499802 *L 0.000634 *D ND2D1BWP16P90LVT

*CAP
1 *57:ZN 3.87711e-06
2 *28:1 8.98834e-06
3 *28:2 1.72376e-05
4 *28:3 5.52426e-05
5 *28:4 6.86265e-05
6 *28:5 3.03373e-05
7 *47:A1 4.82689e-06

*RES
1 *28:5 *47:A1 3.6
2 *28:4 *28:5 12.6154
3 *28:3 *28:4 21.3219
4 *28:2 *28:3 5.99677
5 *28:1 *28:2 3.6
6 *57:ZN *28:1 2.07263
*END

*D_NET *29 0.000238408

*CONN
*I *48:A2 I *C 4.398499966 9.088000298 *L 0.000727 *D ND2D1BWP16P90LVT
*I *56:ZN O *C 5.445000172 8.704000473 *L 0 *D AOI22D1BWP16P90LVT

*CAP
1 *29:0 2.98525e-06
2 *29:1 1.07578e-05
3 *29:2 3.51349e-05
4 *29:3 6.81153e-06
5 *29:4 3.51349e-05
6 *29:5 1.87706e-05
7 *29:6 3.25851e-05
8 *29:7 1.81644e-05
9 *29:8 3.1624e-05
10 *48:A2 4.82689e-06
11 *29:10 1.84113e-05
12 *29:11 1.80895e-05
13 *56:ZN 5.11123e-06

*RES
1 *29:11 *56:ZN 3.6
2 *29:10 *29:11 6.43826
3 *29:8 *29:10 3.6
4 *29:7 *48:A2 3.6
5 *29:6 *29:8 14.0229
6 *29:5 *29:7 6.61648
7 *29:4 *29:6 3.6
8 *29:3 *29:5 3.6
9 *29:2 *29:4 14.2577
10 *29:1 *29:3 0.73805
11 *29:1 *29:2 3.6
12 *29:0 *29:1 0.45722
*END

*D_NET *30 0.000608371

*CONN
*I *53:A1 I *C 5.894999981 12.09599972 *L 0.000596 *D AOI22D1BWP16P90LVT
*I *55:A1 I *C 5.894999981 11.32800007 *L 0.000596 *D AOI22D1BWP16P90LVT
*I *58:A1 I *C 3.914999962 10.94400024 *L 0.000596 *D AOI22D1BWP16P90LVT
*I *60:ZN O *C 5.445000172 10.17599964 *L 0 *D INR2D1BWP16P90LVT
*I *57:A1 I *C 3.914999962 10.17599964 *L 0.000596 *D AOI22D1BWP16P90LVT

*CAP
1 *30:0 1.59911e-06
2 *30:1 9.4407e-06
3 *30:2 3.67276e-05
4 *30:3 7.23542e-06
5 *30:4 5.33995e-05
6 *53:A1 4.82689e-06
7 *30:6 2.21049e-05
8 *30:7 9.92789e-06
9 *30:8 7.6324e-05
10 *30:9 7.52822e-06
11 *30:10 1.7935e-06
12 *30:11 0.000113749
13 *55:A1 4.82689e-06
14 *30:13 4.8001e-05
15 *30:14 2.16994e-05
16 *30:15 5.44974e-05
17 *30:16 1.91282e-05
18 *58:A1 4.82689e-06
19 *30:18 5.35497e-05
20 *30:19 6.94752e-06
21 *30:20 7.58843e-06
22 *30:21 9.8348e-06
23 *30:22 6.64494e-06
24 *30:23 9.2032e-06
25 *60:ZN 3.88341e-06
26 *30:25 8.25554e-06
27 *57:A1 4.82689e-06

*RES
1 *30:25 *57:A1 3.6
2 *30:23 *30:25 1.4871
3 *30:22 *60:ZN 1.94964
4 *30:21 *30:23 2.50459
5 *30:20 *30:22 1.38641
6 *30:19 *30:21 1.76104
7 *30:18 *30:20 3.6
8 *30:16 *30:19 1.25229
9 *30:15 *30:18 21.1325
10 *30:14 *58:A1 3.6
11 *30:13 *30:16 7.04415
12 *30:13 *30:15 2.50459
13 *30:11 *30:14 7.31809
14 *30:11 *30:13 11.2706
15 *30:9 *55:A1 3.6
16 *30:8 *30:11 30.7632
17 *30:7 *30:10 2.77217
18 *30:7 *30:9 1.1826
19 *30:6 *30:8 3.6
20 *30:4 *30:7 3.6
21 *30:4 *30:6 8.32831
22 *30:3 *53:A1 3.6
23 *30:2 *30:4 16.5262
24 *30:1 *30:3 1.17417
25 *30:1 *30:2 3.6
26 *30:0 *30:1 2.77217
*END

*D_NET *31 0.000456901

*CONN
*I *55:ZN O *C 5.985000134 11.26399994 *L 0 *D AOI22D1BWP16P90LVT
*I *49:A2 I *C 7.391499996 7.93599987 *L 0.000727 *D ND2D1BWP16P90LVT

*CAP
1 *55:ZN 3.66158e-06
2 *31:1 3.65433e-05
3 *31:2 3.83148e-05
4 *31:3 0.000144529
5 *31:4 0.000144529
6 *31:5 1.17239e-05
7 *31:6 9.14621e-06
8 *31:7 1.8917e-05
9 *31:8 2.08885e-05
10 *31:9 1.03907e-05
11 *31:10 1.19101e-05
12 *49:A2 6.34626e-06

*RES
1 *31:10 *49:A2 3.09357
2 *31:9 *31:10 2.71217
3 *31:8 *31:9 3.6
4 *31:7 *31:8 6.64275
5 *31:6 *31:7 1.18093
6 *31:5 *31:6 2.60174
7 *31:4 *31:5 3.6
8 *31:3 *31:4 67.8044
9 *31:2 *31:3 3.6
10 *31:1 *31:2 13.5992
11 *55:ZN *31:1 3.6
*END

*D_NET *32 0.000606318

*CONN
*I *59:ZN O *C 4.146999836 8.102499962 *L 0 *D NR2D1BWP16P90LVT
*I *51:A1 I *C 3.825000048 8.640000343 *L 0.000596 *D AOI22D1BWP16P90LVT
*I *54:A1 I *C 3.644999981 7.487999916 *L 0.000596 *D AOI22D1BWP16P90LVT
*I *57:B1 I *C 3.825000048 10.23999977 *L 0.000648 *D AOI22D1BWP16P90LVT
*I *58:B1 I *C 3.825000048 10.88000011 *L 0.000648 *D AOI22D1BWP16P90LVT

*CAP
1 *32:0 4.11352e-06
2 *32:1 1.01585e-05
3 *59:ZN 4.82689e-06
4 *32:3 6.65115e-06
5 *32:4 4.2714e-05
6 *32:5 2.75254e-05
7 *32:6 2.15826e-05
8 *32:7 1.69823e-05
9 *32:8 3.238e-05
10 *32:9 1.9238e-05
11 *32:10 3.238e-05
12 *32:11 2.75254e-05
13 *32:12 7.08261e-06
14 *32:13 1.88211e-05
15 *32:14 2.75254e-05
16 *51:A1 4.82689e-06
17 *32:16 1.786e-05
18 *32:17 2.34337e-05
19 *32:18 9.35801e-06
20 *32:19 7.28596e-05
21 *32:20 6.81226e-06
22 *32:21 8.43638e-05
23 *32:22 7.93633e-06
24 *32:23 2.95048e-05
25 *32:24 1.72921e-05
26 *54:A1 5.04902e-06
27 *32:26 1.72921e-05
28 *57:B1 5.11123e-06
29 *58:B1 5.11123e-06

*RES
1 *32:26 *58:B1 3.6
2 *32:24 *57:B1 3.6
3 *32:23 *32:26 5.28109
4 *32:22 *54:A1 3.6
5 *32:21 *32:24 5.28109
6 *32:21 *32:23 7.51088
7 *32:20 *32:22 1.25181
8 *32:19 *32:21 23.7845
9 *32:18 *32:20 1.70168
10 *32:17 *32:19 7.80428
11 *32:16 *32:18 3.6
12 *32:14 *32:17 3.6
13 *32:13 *32:16 6.23773
14 *32:12 *51:A1 3.6
15 *32:11 *32:14 11.0893
16 *32:10 *32:13 3.6
17 *32:9 *32:12 0.97798
18 *32:9 *32:11 3.6
19 *32:8 *32:10 11.2663
20 *32:7 *32:9 5.00726
21 *32:6 *32:8 3.6
22 *32:5 *32:7 3.6
23 *32:4 *32:6 7.6239
24 *32:4 *32:5 11.0893
25 *32:3 *32:4 3.6
26 *32:1 *32:3 0.528109
27 *32:1 *59:ZN 3.6
28 *32:0 *32:1 2.40064
*END

*D_NET *33 0.000102745

*CONN
*I *54:ZN O *C 3.555000067 7.552000046 *L 0 *D AOI22D1BWP16P90LVT
*I *50:A1 I *C 4.752999783 7.341499805 *L 0.000634 *D ND2D1BWP16P90LVT

*CAP
1 *54:ZN 3.87426e-06
2 *33:1 8.98549e-06
3 *33:2 4.26716e-05
4 *33:3 4.23872e-05
5 *50:A1 4.82689e-06

*RES
1 *33:3 *50:A1 3.6
2 *33:2 *33:3 19.6171
3 *33:1 *33:2 3.6
4 *54:ZN *33:1 2.12842
*END

*D_NET *34 0.000635127

*CONN
*I *62:Z O *C 5.985000134 9.727999687 *L 0 *D AN2D1BWP16P90LVT
*I *56:A1 I *C 5.534999847 8.640000343 *L 0.000596 *D AOI22D1BWP16P90LVT
*I *52:A1 I *C 4.994999886 8.640000343 *L 0.000596 *D AOI22D1BWP16P90LVT
*I *55:B1 I *C 5.985000134 11.3920002 *L 0.000648 *D AOI22D1BWP16P90LVT
*I *53:B1 I *C 5.985000134 12.03199959 *L 0.000648 *D AOI22D1BWP16P90LVT

*CAP
1 *34:1 1.24266e-05
2 *62:Z 4.82689e-06
3 *34:3 7.03301e-06
4 *34:4 8.84416e-06
5 *34:5 5.26967e-05
6 *34:6 3.55455e-05
7 *34:7 1.11208e-05
8 *34:8 4.4356e-05
9 *34:9 3.81343e-05
10 *34:10 7.50657e-05
11 *34:11 2.58233e-05
12 *34:12 4.13432e-05
13 *34:13 7.50657e-05
14 *34:14 2.52172e-05
15 *34:15 4.13432e-05
16 *34:16 1.08955e-05
17 *56:A1 4.82689e-06
18 *34:18 9.99987e-06
19 *34:19 2.37676e-05
20 *34:20 9.70702e-08
21 *34:21 9.29664e-06
22 *34:22 1.56523e-05
23 *34:23 9.35963e-06
24 *52:A1 4.82689e-06
25 *34:25 9.35963e-06
26 *34:26 6.46495e-06
27 *34:27 6.46495e-06
28 *34:28 7.5874e-06
29 *34:29 7.5874e-06
30 *55:B1 5.04902e-06
31 *53:B1 5.04902e-06

*RES
1 *34:29 *53:B1 3.6
2 *34:28 *55:B1 3.6
3 *34:27 *34:29 1.20298
4 *34:26 *34:28 1.20298
5 *34:25 *34:27 1.86087
6 *34:23 *34:26 1.86087
7 *34:22 *34:25 3.6
8 *34:21 *52:A1 3.6
9 *34:19 *34:23 3.6
10 *34:19 *34:22 5.43392
11 *34:18 *34:21 1.89139
12 *34:18 *34:20 0.457265
13 *34:16 *34:19 4.10394
14 *34:15 *34:18 3.6
15 *34:14 *56:A1 3.6
16 *34:13 *34:16 1.37273
17 *34:12 *34:15 17.8245
18 *34:11 *34:14 8.65687
19 *34:10 *34:13 35.691
20 *34:9 *34:12 3.6
21 *34:8 *34:11 3.6
22 *34:7 *34:10 1.37273
23 *34:6 *34:9 13.8436
24 *34:5 *34:8 19.2182
25 *34:5 *34:7 4.1182
26 *34:4 *34:6 1.21209
27 *34:3 *34:5 3.6
28 *34:1 *34:4 2.55675
29 *34:1 *34:3 0.6818
30 *34:1 *62:Z 3.6
31 *34:0 *34:1 3.80102
*END

*D_NET *35 0.000552249

*CONN
*I *50:A2 I *C 4.601500034 7.423999786 *L 0.000727 *D ND2D1BWP16P90LVT
*I *53:ZN O *C 5.985000134 12.15999985 *L 0 *D AOI22D1BWP16P90LVT

*CAP
1 *35:0 3.09789e-06
2 *35:1 9.41939e-06
3 *35:2 6.92766e-06
4 *50:A2 4.82689e-06
5 *35:4 1.0964e-05
6 *35:5 1.10619e-05
7 *35:6 0.000192068
8 *35:7 0.000191971
9 *35:8 5.85617e-05
10 *35:9 5.82398e-05
11 *53:ZN 5.11123e-06

*RES
1 *35:9 *53:ZN 3.6
2 *35:8 *35:9 23.0273
3 *35:7 *35:8 3.6
4 *35:6 *35:7 88.9512
5 *35:5 *35:6 2.61877
6 *35:4 *35:5 2.61877
7 *35:2 *35:4 3.6
8 *35:1 *50:A2 3.6
9 *35:1 *35:2 0.568894
10 *35:0 *35:1 0.457265
*END

*D_NET *36 0.000550932

*CONN
*I *54:B1 I *C 3.555000067 7.423999786 *L 0.000648 *D AOI22D1BWP16P90LVT
*I *61:ZN O *C 4.454999924 7.487999916 *L 0 *D INR2D1BWP16P90LVT
*I *51:B1 I *C 3.734999895 8.576000214 *L 0.000648 *D AOI22D1BWP16P90LVT
*I *52:B1 I *C 4.90500021 8.576000214 *L 0.000648 *D AOI22D1BWP16P90LVT
*I *56:B1 I *C 5.445000172 8.576000214 *L 0.000648 *D AOI22D1BWP16P90LVT

*CAP
1 *36:0 7.6403e-06
2 *36:1 3.56973e-05
3 *36:2 3.99333e-05
4 *36:3 3.12617e-05
5 *54:B1 5.11123e-06
6 *36:5 5.60745e-05
7 *36:6 1.61264e-05
8 *36:7 2.06132e-05
9 *36:8 7.55843e-05
10 *36:9 1.83547e-05
11 *36:10 1.57485e-05
12 *36:11 7.55843e-05
13 *61:ZN 5.11123e-06
14 *36:13 1.54267e-05
15 *36:14 2.15742e-05
16 *51:B1 5.11123e-06
17 *36:16 2.06132e-05
18 *36:17 1.85414e-05
19 *36:18 1.29281e-05
20 *36:19 5.94603e-06
21 *36:20 1.40993e-05
22 *36:21 7.93194e-06
23 *36:22 1.60433e-05
24 *52:B1 5.04902e-06
25 *56:B1 4.82689e-06

*RES
1 *36:22 *56:B1 3.6
2 *36:21 *52:B1 3.6
3 *36:20 *36:22 5.09491
4 *36:19 *36:21 1.30953
5 *36:18 *36:20 1.30953
6 *36:17 *36:19 1.39138
7 *36:17 *36:18 4.56291
8 *36:16 *36:17 3.6
9 *36:14 *36:16 7.78802
10 *36:13 *51:B1 3.6
11 *36:11 *36:14 3.6
12 *36:10 *36:13 4.68568
13 *36:9 *61:ZN 3.6
14 *36:8 *36:11 31.4288
15 *36:7 *36:10 3.6
16 *36:6 *36:9 6.01567
17 *36:5 *36:8 3.6
18 *36:5 *36:7 7.78802
19 *36:3 *36:6 1.30953
20 *36:2 *36:5 17.7001
21 *36:1 *54:B1 3.6
22 *36:1 *36:3 12.8907
23 *36:0 *36:2 3.6
24 *36:0 *36:1 1.00261
*END

*D_NET *37 7.42219e-05

*CONN
*I *47:A2 I *C 4.871500015 9.088000298 *L 0.000727 *D ND2D1BWP16P90LVT
*I *52:ZN O *C 4.90500021 8.704000473 *L 0 *D AOI22D1BWP16P90LVT

*CAP
1 *47:A2 4.82689e-06
2 *37:1 1.44123e-05
3 *37:2 2.39187e-05
4 *37:3 1.78718e-05
5 *37:4 8.36542e-06
6 *52:ZN 4.82689e-06

*RES
1 *37:4 *52:ZN 3.6
2 *37:3 *37:4 1.88043
3 *37:2 *37:3 7.61693